106
DUNTIQ (CCDC 765172)
O       0.914263    4.668652   11.352384
N       2.464957    4.004110    4.464254
H       2.661479    4.793819    4.700657
N       0.871485    4.743589    2.127173
H       0.623695    3.935289    1.847829
C       2.990712    3.824213    3.077811
H       2.790603    2.906530    2.766033
H       3.973746    3.939486    3.081237
C       2.368920    4.825109    2.131284
H       2.644439    5.738413    2.396010
H       2.707023    4.660631    1.215136
C       0.341319    4.860128    3.515443
H      -0.638559    4.723836    3.503794
H       0.519861    5.771713    3.857828
C       0.974898    3.849163    4.434332
H       0.614557    3.963294    5.349339
H       0.745247    2.936114    4.127351
C       0.285885    5.791954    1.244144
H      -0.691429    5.737493    1.274522
H       0.591865    5.652149    0.324341
H       0.574269    6.676331    1.553181
C       3.104634    3.030725    5.417633
H       2.928747    2.107901    5.104941
H       4.084843    3.171207    5.413293
C       2.592522    3.178722    6.822805
C       2.927539    4.277045    7.628632
H       3.512258    4.947826    7.293100
C       2.412850    4.391120    8.906809
H       2.631798    5.150335    9.433292
C       1.577961    3.407290    9.432378
C       1.249593    2.314256    8.626323
H       0.681407    1.635097    8.969622
C       1.734799    2.204053    7.342664
H       1.485071    1.460818    6.806588
C       1.025814    3.567506   10.824531
N       0.660576    2.404518   11.417024
H       0.978813    1.687153   11.093825
C      -0.047727    2.205116   12.630561
C      -0.890710    3.158935   13.197472
H      -0.956921    4.035009   12.836586
C      -1.630764    2.781185   14.310509
H      -2.206441    3.425078   14.704972
C      -1.576045    1.515343   14.876964
C      -2.524079    1.146069   15.989544
H      -2.012713    0.832335   16.765221
H      -3.123919    0.432602   15.684846
H      -3.052931    1.931557   16.242164
C      -0.679853    0.597339   14.325813
C       0.070812    0.950825   13.205238
H       0.674919    0.320238   12.829734
N      -0.637256   -0.713645   14.867371
H      -1.385411   -0.959664   15.253153
C       0.289399   -1.700976   14.662031
N      -0.111212   -2.945118   15.005786
C       0.790928   -3.898716   14.807984
H       0.557808   -4.787664   15.049869
C       2.046349   -3.686100   14.275106
H       2.660395   -4.397013   14.136233
C       2.359666   -2.370306   13.954648
N       1.488762   -1.373350   14.166840
C       3.654479   -1.982779   13.347080
C       4.520356   -2.940993   12.829962
H       4.253498   -3.852101   12.870848
N       5.705024   -2.655449   12.278355
C       6.042715   -1.362427   12.188818
H       6.883781   -1.141051   11.806462
C       5.231448   -0.335742   12.624623
H       5.496011    0.569670   12.514529
C       4.029099   -0.644348   13.223968
H       3.462934    0.045397   13.549222
O       0.745875    2.096351    1.740933
O       2.591229    0.433286    2.912672
O       2.804607   -1.139191    1.441946
O      -1.344465   -3.705850    1.023501
O      -3.212027   -2.643113    0.850138
O      -3.391669    2.038832    1.708499
O      -1.648222    3.248699    1.438748
N       2.133131   -0.313395    2.054767
N      -2.008754   -2.671410    1.058904
N      -2.184556    2.155635    1.571226
C       0.070967    1.051450    1.705073
C       0.698802   -0.254489    1.772682
C       0.054107   -1.439404    1.549755
H       0.535095   -2.258623    1.539477
C      -1.322095   -1.422113    1.336650
C      -2.046615   -0.245239    1.379362
H      -2.991828   -0.255893    1.283659
C      -1.369026    0.947959    1.563003
O       2.389417    6.606497    4.996675
O       0.282409    8.330967    4.417659
O       0.504122    9.708603    6.072253
O       4.562107   12.448378    4.930437
O       6.422395   11.338791    4.739715
O       6.296778    6.692826    3.812832
O       4.888159    5.507729    4.928610
N       0.968862    8.997478    5.185341
N       5.196156   11.392479    4.841814
N       5.262342    6.580757    4.461970
C       3.050115    7.667305    4.914677
C       2.422137    8.961873    5.030937
C       3.082989   10.157064    5.030023
H       2.615402   10.975561    5.150623
C       4.464642   10.138831    4.847296
C       5.164812    8.971367    4.667995
H       6.104526    8.985551    4.527067
C       4.472466    7.773590    4.696774
