21
1 2
  Fe  -1.33244127248535     -0.62527540567385     -0.76186750450699
  C   -1.70579675593767      0.31827975700251      1.10400065693113
  C   -1.85837680428152     -1.07865975192207      1.24722248217207
  C   -0.63781879366416     -1.69729285606329      0.88111636184247
  C   0.27838378318621     -0.67379246546439      0.51057680374194
  C   -0.38908539630322      0.57542970514698      0.64817911102084
  H   -2.47515212326863      1.05824477895983      1.26925663915894
  H   -2.76455870663269     -1.58871422651749      1.53956836794011
  H   -0.44434688057472     -2.75947483098833      0.87015711529843
  H   0.02746767744594      1.54746047193390      0.43047742979212
  C   -0.62574771833395     -0.90628614924121     -2.66909565637752
  C   -1.57067245832244     -1.92630349060811     -2.36707181327284
  C   -2.81935706241838     -1.30459670650236     -2.11972946836567
  C   -2.65410602824571      0.09081783841415     -2.26349376083280
  C   -1.30169116300453      0.34399696672176     -2.60126684469499
  H   0.41663217570358     -1.05432296075678     -2.90728889726304
  H   -1.37019086083170     -2.98615186543802     -2.31930429910925
  H   -3.72970259100080     -1.80604357268325     -1.82545673504589
  H   -0.86052242071748      1.31605088703786     -2.76329811977926
  H   -3.41655702565653      0.83789324488321     -2.09819468794206
  H   1.29696842534376     -0.81888036824102      0.18399181929228
