21
1 3
  Mn  6.35703394150236     -1.52885768337106      5.94747490601232
  C   5.76366470583923     -1.49677912555129      8.03205775973354
  C   6.70908093190376     -2.52886132433880      7.84392581962443
  C   7.90051909994379     -1.95345755516423      7.33725109520028
  C   7.69172085836608     -0.54936093984825      7.21402877962141
  C   6.36143817738810     -0.27078329727533      7.64413190544197
  H   4.74478074981109     -1.62698519331940      8.36695254469214
  H   6.53463983152095     -3.58246682018875      8.00777451867220
  H   8.80227384872162     -2.48789798439997      7.07789838384268
  H   5.88863429915286      0.69976014962891      7.66382411714580
  C   6.87102542082923     -2.27035401015083      4.02958645246408
  C   5.63113675955282     -2.85509746459781      4.38780370452172
  C   4.69357261835772     -1.81806882185267      4.58774119118555
  C   5.34417854991017     -0.57993523589518      4.35459814428263
  C   6.69808528308005     -0.85615484594106      4.00414830005490
  H   7.78785005956897     -2.80311003362631      3.82550333916658
  H   5.44727010627724     -3.90956063120758      4.53495691307995
  H   3.67067610048821     -1.94524853877318      4.91141307070874
  H   7.45367762541344     -0.12637012239646      3.75569562664458
  H   4.89453236196903      0.39828741045918      4.43703551635083
  H   8.41367007840316      0.17388877281011      6.86626209855355
