21
0 2
  Co  6.36695366864720     -1.51515701480032      5.94288828946928
  C   5.73789122487115     -1.51600670114315      7.98007975584080
  C   6.67008294868150     -2.53934753860472      7.77100187260005
  C   7.88992014954559     -1.93912594673796      7.31037313594995
  C   7.72056915620562     -0.54110377329560      7.28763210235327
  C   6.36467549682267     -0.28368000498680      7.61340675375404
  H   4.71173551285832     -1.63562452014396      8.29134273059424
  H   6.50055105027351     -3.59713465148302      7.90215777910666
  H   8.79267235852622     -2.47404204154839      7.05595399889181
  H   5.89576712561690      0.68877570470724      7.63953155118874
  C   6.87598349951337     -2.25225554780332      4.05479884329442
  C   5.63903853468468     -2.85106051144413      4.46932287797563
  C   4.70181442208350     -1.82646644785095      4.64700723732163
  C   5.36514595287463     -0.58771642822766      4.37929364045645
  C   6.68048342116903     -0.86311071902399      3.92700664540293
  H   7.79072765769075     -2.78723548424032      3.84778243303184
  H   5.47772728504839     -3.90417549278371      4.64198234257416
  H   3.68600460916637     -1.93832910984178      4.99307868875347
  H   7.42382726195643     -0.13452499848704      3.64390782959772
  H   4.91584930675041      0.39145980556942      4.45415619724642
  H   8.45204076601350      0.18844812817019      6.97735948159627
