6
Frame 0
 C         -0.244115221906       -0.077783105118       -0.462787021921
 H         -0.555038227580        0.770412024485        0.132637036516
 H         -0.654008384362       -0.985211647958       -0.039915582727
 H         -0.603642884364        0.041957600232       -1.476377918420
 H          0.836121387379       -0.138218206491       -0.468379847812
 H          1.220683330832        0.388843334849        2.314823334364
6
Frame 1
 C         -0.247257305992       -0.089652219634       -0.446950978254
 H         -0.603617999632        0.742930410663        0.145111188870
 H         -0.722390745732       -0.993052207373       -0.087853173590
 H         -0.553398281644        0.059744103762       -1.474207353595
 H          0.872540013821       -0.116975822716       -0.321072544045
 H          1.254124319179        0.397005735298        2.184972860614
6
Frame 2
 C         -0.243861233643       -0.102250921517       -0.426754590825
 H         -0.644945335082        0.714840408947        0.158429272712
 H         -0.780434336311       -0.995932826896       -0.135319049255
 H         -0.500520033243        0.078069718617       -1.462748336533
 H          0.897770498543       -0.091461686137       -0.144247960004
 H          1.271990439736        0.396735306985        2.010640663905
6
Frame 3
 C         -0.239134955848       -0.113433090196       -0.405342157868
 H         -0.691117920844        0.690251562762        0.161273104287
 H         -0.826621531965       -0.995043741491       -0.182097010857
 H         -0.438582181983        0.089894162818       -1.449800151626
 H          0.897340085184       -0.055247693277        0.059475160683
 H          1.298116505458        0.383578799383        1.816491055380
6
Frame 4
 C         -0.239977488702       -0.127551081525       -0.391584061217
 H         -0.729985423320        0.665301857754        0.158645437595
 H         -0.870617703640       -0.993597331585       -0.233123249350
 H         -0.386506508105        0.099230702103       -1.440100321800
 H          0.883409416815       -0.025123321604        0.226976606756
 H          1.343677706953        0.381739174857        1.679185588016
6
Frame 5
 C         -0.245784862625       -0.145701980504       -0.382867464757
 H         -0.752007681249        0.640779968191        0.161858770700
 H         -0.915902074567       -0.990827676698       -0.282556272138
 H         -0.348327948773        0.107426324471       -1.430660058164
 H          0.880053373021       -0.004030722768        0.345962575074
 H          1.381969194193        0.392354087309        1.588262449286
6
Frame 6
 C         -0.257056714969       -0.166751687048       -0.377382648654
 H         -0.762927807535        0.615304049028        0.173895800789
 H         -0.964313066197       -0.986293408799       -0.334566934079
 H         -0.315789522759        0.117553175758       -1.420557109041
 H          0.887924259114        0.001477960083        0.439731347792
 H          1.412162852346        0.418709910978        1.518879543192
6
Frame 7
 C         -0.274231440582       -0.188218456865       -0.374376401857
 H         -0.770268050921        0.591488553852        0.188778822425
 H         -1.013178857895       -0.980501053441       -0.383910336899
 H         -0.286555008289        0.123032630872       -1.411367151807
 H          0.908200141274        0.009861941468        0.513737454808
 H          1.436033216413        0.444336384114        1.467137613330
6
Frame 8
 C         -0.298242191533       -0.210622296057       -0.372864327549
 H         -0.775471317455        0.569202716728        0.205782790471
 H         -1.065176183463       -0.973800537165       -0.429182266323
 H         -0.258620409694        0.120615882484       -1.402830470998
 H          0.946667516846        0.033384991839        0.563072758675
 H          1.450842585300        0.461219242171        1.436021515723
6
Frame 9
 C         -0.326205413597       -0.228800032570       -0.378995001324
 H         -0.775757475237        0.543065627747        0.231141786417
 H         -1.115162632777       -0.964016617275       -0.481699566019
 H         -0.233032111617        0.126734677757       -1.397126423001
 H          0.982358628000        0.010387483027        0.635028526998
 H          1.467799005228        0.512628861315        1.391650676929
6
Frame 10
 C         -0.359608909450       -0.244803246469       -0.390139198839
 H         -0.771764066905        0.513883389495        0.261018239083
 H         -1.167127440655       -0.952145986743       -0.533849700649
 H         -0.207531818928        0.130106650438       -1.393830590020
 H          1.027577655027       -0.012859211338        0.708215819848
 H          1.478454580911        0.565818404616        1.348585430578
6
Frame 11
 C         -0.400503106855       -0.258204262999       -0.407266213065
 H         -0.763032359899        0.478564351378        0.295932534269
 H         -1.224236149307       -0.937436065506       -0.587489450152
 H         -0.180272805846        0.129377522455       -1.392970939107
 H          1.083766775880       -0.031871702650        0.785845049943
 H          1.484277646027        0.619570157323        1.305949018113
6
Frame 12
 C         -0.452147232589       -0.267701485491       -0.431765852277
 H         -0.750521037882        0.433219506229        0.334802851978
 H         -1.289905589486       -0.918901116463       -0.645165323115
 H         -0.150325480225        0.122676829889       -1.394037938837
 H          1.154763765222       -0.042182282262        0.871695683841
 H          1.488135574960        0.672888548098        1.264470578410
6
Frame 13
 C         -0.518759651935       -0.270575910555       -0.465739021680
 H         -0.737385155831        0.376034984167        0.371664927941
 H         -1.366691688861       -0.897103996152       -0.708115689738
 H         -0.120321452764        0.107871365831       -1.396608550808
 H          1.250782849917       -0.039981838118        0.969348011761
 H          1.492375099473        0.723755394828        1.229450322523
6
Frame 14
 C         -0.605582526463       -0.262962446809       -0.515535146941
 H         -0.728772192624        0.305879426774        0.394244226241
 H         -1.452146457627       -0.882519115549       -0.776874533212
 H         -0.101012915861        0.091892194883       -1.402640606034
 H          1.368197097918       -0.019665511493        1.101769375495
 H          1.519316994657        0.767375452194        1.199036684451
6
Frame 15
 C         -0.723059736668       -0.244359173066       -0.587283865092
 H         -0.731674787079        0.233407680568        0.381037636736
 H         -1.559358303985       -0.876330547233       -0.848880739001
 H         -0.099740399843        0.060516553797       -1.414939996152
 H          1.558122575402        0.026075256545        1.248840089391
 H          1.555710652173        0.800690229389        1.221226874118
6
Frame 16
 C         -0.877619448337       -0.226599446196       -0.691480053010
 H         -0.765551852395        0.134576276437        0.319892677065
 H         -1.697232172114       -0.882928120067       -0.942621882112
 H         -0.141458107195        0.027954110615       -1.439135859639
 H          1.793809117375        0.116114597175        1.462867965769
 H          1.688052462666        0.830882582035        1.290477151928
