12
0 1
  C     -0.219714    0.000001   -2.156372
  C     -1.371643   -0.351021   -1.459810
  C      0.932215    0.351023   -1.459811
  H     -2.267354   -0.629575   -2.001312
  H      1.827926    0.629573   -2.001313
  C     -1.371641   -0.351028   -0.067728
  C      0.932211    0.351028   -0.067729
  H     -2.267351   -0.629583    0.473774
  H      1.827922    0.629581    0.473774
  C     -0.219715    0.000000    0.628834
  H     -0.219715    0.000001    1.712086
  H     -0.219715    0.000001   -3.239623
