12
0 1
  C     -0.219713    0.000004   -2.072187
  C     -1.377010   -0.352504   -1.391372
  C      0.937582    0.352513   -1.391371
  H     -2.267253   -0.631188   -1.937898
  H      1.827830    0.631190   -1.937893
  C     -1.369752   -0.349795    0.000346
  C      0.930321    0.349798    0.000347
  H     -2.268796   -0.628842    0.535377
  H      1.829365    0.628840    0.535382
  C     -0.219716    0.000003    0.699023
  H     -0.219716    0.000000    1.781472
  Br    -0.219715   -0.000020   -3.986454
