12
1 2
  C     -0.219714   -0.000000   -2.064981
  C     -1.403228   -0.359871   -1.370949
  C      0.963800    0.359873   -1.370949
  H     -2.292528   -0.638505   -1.919014
  H      1.853100    0.638504   -1.919014
  C     -1.392141   -0.356406    0.003381
  C      0.952711    0.356410    0.003381
  H     -2.281136   -0.633557    0.553969
  H      1.841706    0.633557    0.553970
  C     -0.219715    0.000001    0.695878
  H     -0.219713   -0.000003    1.778741
  I     -0.219715   -0.000002   -4.109641
