12
0 1
  C     -0.219714    0.000000   -2.060455
  C     -1.376355   -0.352039   -1.375148
  C      0.936926    0.352040   -1.375148
  H     -2.270674   -0.631457   -1.914775
  H      1.831245    0.631457   -1.914775
  C     -1.369401   -0.349909    0.017057
  C      0.929972    0.349911    0.017058
  H     -2.268639   -0.629607    0.551704
  H      1.829211    0.629605    0.551705
  C     -0.219715    0.000001    0.715720
  H     -0.219714    0.000000    1.798252
  I     -0.219715   -0.000001   -4.176424
