14
1 2
C -0.00001 0.00000 -0.22905
N 0.00001 0.00000 -1.56902
C -0.00002 1.24411 0.48347
H -0.00002 2.17829 -0.07129
C 0.00000 1.23016 1.85687
H 0.00001 2.16345 2.41035
C 0.00001 0.00000 2.55454
H 0.00002 0.00000 3.64038
C -0.00001 -1.23016 1.85687
H 0.00000 -2.16345 2.41035
C -0.00002 -1.24411 0.48347
H -0.00001 -2.17829 -0.07129
H 0.00002 0.86644 -2.09961
H 0.00002 -0.86644 -2.09960
