16
1 2
N -0.30711 1.45143 -0.26665
C 0.29543 1.49067 -1.57734
C 0.39363 1.24634 0.98281
C -0.35670 0.29912 1.93152
C 0.04591 0.14986 -2.33707
H 0.47225 2.24547 1.45430
H -0.17691 2.30652 -2.13777
H 0.20398 0.24532 2.86791
H -0.42728 -0.70367 1.50373
H 0.50335 0.26168 -3.32387
H 0.51581 -0.68343 -1.81120
H -1.32701 1.53468 -0.21580
H -1.36005 0.67196 2.15846
H -1.02272 -0.03990 -2.46004
H 1.40933 0.91614 0.74897
H 1.36448 1.67651 -1.45929
