16
1 2
C 2.15482 -0.66518 0.00000
C 2.16835 0.73019 0.00002
C 0.97371 1.45600 0.00000
C -0.25110 0.74452 0.00000
C -0.22770 -0.67814 -0.00001
C 0.93957 -1.40533 -0.00002
H 0.98099 2.54176 0.00001
H 3.09304 -1.21119 0.00002
H 3.11716 1.25577 0.00003
C -1.60374 1.14306 -0.00002
H -2.00422 2.14804 -0.00003
C -2.38583 -0.04397 0.00003
N -1.56993 -1.10630 0.00001
H -3.46209 -0.15494 0.00004
H -1.87740 -2.07388 0.00003
H 0.95526 -2.49096 -0.00001
