17
0 1
C 0.01648 -0.03275 0.02730
N -1.42012 0.13578 -0.15371
C -2.09986 -0.56223 -1.15257
C -1.43134 -1.14549 -2.24388
C -2.15428 -1.78382 -3.25235
C -3.54444 -1.86728 -3.19897
C -4.21207 -1.29627 -2.11073
C -3.50550 -0.65270 -1.10258
H 0.31882 -1.08616 0.13915
H 0.55730 0.39214 -0.82501
H 0.31758 0.51796 0.92157
H -1.93936 0.19911 0.71355
H -0.34877 -1.10058 -2.30831
H -1.61544 -2.22556 -4.08692
H -4.09939 -2.36873 -3.98599
H -5.29575 -1.35339 -2.04593
H -4.03738 -0.20603 -0.26433
