13
1 2
C -0.00001 0.04562 -0.20190
C -0.00001 1.24061 0.46956
C 0.00000 1.23614 1.89569
O 0.00000 2.34787 2.61827
C 0.00000 0.01450 2.63511
C 0.00000 -1.17783 1.96067
H 0.00000 -2.12394 2.49083
C -0.00001 -1.17015 0.53938
H -0.00001 0.01009 -1.28596
H 0.00000 3.15500 2.06378
H 0.00001 0.06180 3.71937
H -0.00001 2.18291 -0.07239
Cl -0.00001 -2.64719 -0.30028
