14
1 2
C -0.00001 -0.02293 -0.23096
C 0.00000 1.16877 0.44668
C 0.00000 1.17588 1.87777
C 0.00001 -0.06110 2.59746
C 0.00000 -1.24952 1.91406
H 0.00000 -2.19651 2.44245
C -0.00001 -1.23921 0.49675
H -0.00002 -0.04783 -1.31510
H 0.00002 -0.05047 3.68374
H 0.00000 2.11037 -0.09508
Cl -0.00003 -2.72050 -0.35026
N -0.00001 2.34040 2.54363
H -0.00001 3.23025 2.05551
H -0.00001 2.37113 3.55809
