14
1 2
C 0.01257 0.01274 -0.26049
C 0.00164 1.21288 0.39708
C -0.00455 1.21845 1.82581
O -0.01487 2.33231 2.53611
C 0.00015 0.00313 2.58114
C 0.01121 -1.19384 1.91770
H 0.01509 -2.13328 2.46017
C 0.01753 -1.20878 0.48869
C 0.02910 -2.44013 -0.19790
H 0.01759 -0.02986 -1.34464
H -0.01768 3.13877 1.97859
H -0.00510 0.06477 3.66472
H -0.00222 2.15185 -0.15057
N 0.03379 -3.46267 -0.76744
