17
1 2
C 0.00000 0.00087 -0.30039
N -0.00001 -0.00427 -1.64185
C 0.00001 1.24143 0.41232
H 0.00000 2.17649 -0.14110
C 0.00001 1.23337 1.78437
H 0.00000 2.17385 2.32702
C 0.00000 0.01456 2.51581
C -0.00001 0.00705 4.00728
C 0.00001 -1.21409 1.79220
H 0.00000 -2.15052 2.34265
C 0.00001 -1.23438 0.42280
H 0.00001 -2.17383 -0.12307
H -0.00001 0.85949 -2.17488
H -0.00001 -0.87211 -2.16820
H -0.00001 1.01469 4.42519
H 0.87735 -0.53629 4.38466
H -0.87736 -0.53629 4.38465
