17
0 1
C 0.21797 -0.04476 -0.28300
N 0.24190 -0.06584 -1.68880
C 0.18538 1.16779 0.41965
H 0.23532 2.10778 -0.12639
C 0.08585 1.17814 1.80984
H 0.06500 2.13481 2.32813
C 0.01404 -0.00527 2.55217
C -0.09498 0.01266 4.05949
C 0.04824 -1.21203 1.83965
H -0.00233 -2.15541 2.38023
C 0.14710 -1.23909 0.45232
H 0.16694 -2.19331 -0.07063
H -0.10216 1.03916 4.43872
H 0.74570 -0.51256 4.52934
H -1.01539 -0.47694 4.40079
H 0.66629 0.75666 -2.10443
H 0.64399 -0.91129 -2.07977
