18
0 1
C 0.07727 -0.04344 -0.33671
N 0.02632 -0.02957 -1.74787
C 0.07115 1.14529 0.39979
H 0.08709 2.10093 -0.12020
C 0.04048 1.13336 1.79728
H 0.03914 2.07814 2.33013
C 0.01447 -0.08203 2.48567
O -0.01553 -0.20961 3.85940
C 0.02142 -1.27819 1.75767
H 0.00380 -2.22041 2.29743
C 0.05055 -1.25809 0.36980
H 0.04935 -2.19831 -0.17771
C -0.03361 1.00213 4.61587
H -0.06358 0.69441 5.66219
H -0.92249 1.60319 4.38246
H 0.86988 1.59899 4.43295
H 0.43498 0.80625 -2.15431
H 0.44061 -0.85473 -2.17017
