13
1 2
C -0.14195 -0.47841 0.00006
H -2.06649 -0.52579 0.00015
O -1.29294 -1.12863 0.00013
C 1.03345 -1.30084 0.00004
C 2.26291 -0.69184 -0.00002
C 2.34834 0.72300 -0.00006
C 1.17824 1.53418 -0.00005
C -0.06213 0.94985 0.00002
H 0.91022 -2.37923 0.00008
H 3.17055 -1.28636 -0.00003
H 3.32407 1.20053 -0.00011
H 1.27598 2.61501 -0.00009
H -0.97286 1.54357 0.00003
