17
0 1
C -4.80934 1.28730 0.15769
C -4.77998 -0.19584 -0.22258
C -3.49390 -0.85933 0.29412
C -2.25457 -0.07698 -0.16759
C -2.38110 1.40158 0.21057
N -3.61154 1.95235 -0.38068
H -4.87542 1.37465 1.26114
H -5.69328 1.77573 -0.26732
H -1.52930 1.97169 -0.17667
H -2.37153 1.49253 1.31565
H -4.82563 -0.27872 -1.31585
H -5.66374 -0.70066 0.18674
H -3.43751 -1.90158 -0.04243
H -3.51684 -0.88032 1.39352
H -2.15385 -0.15299 -1.25766
H -1.34594 -0.49743 0.28081
H -3.66282 2.95117 -0.18500
