14
0 1
C -0.41455 -2.33585 -0.82659
C -0.72361 -2.60654 -2.31246
C -0.98204 -1.19410 -2.91763
C -0.79962 -0.22906 -1.72930
N 0.13161 -0.96742 -0.85786
H 0.17458 -0.55961 0.07561
H 0.31733 -3.03221 -0.40513
H -1.34330 -2.40795 -0.23040
H -1.58185 -3.27452 -2.42856
H 0.13440 -3.07825 -2.79912
H -1.97906 -1.10402 -3.35815
H -0.25054 -0.97547 -3.70035
H -1.77579 -0.04184 -1.24422
H -0.37142 0.73559 -2.01961
