           8
1 2
   N          0.00000000      0.00000000     -1.08325539
   N          0.00000000      0.00000000      1.08325539
   H          0.84297303      0.48669071     -1.35892883
   H          0.00000000     -0.97338141     -1.35892883
   H         -0.84297303      0.48669071     -1.35892883
   H          0.84297303     -0.48669071      1.35892883
   H          0.00000000      0.97338141      1.35892883
   H         -0.84297303     -0.48669071      1.35892883
