           8
1 2
   N          0.00000000      0.00000000     -1.35406924
   N          0.00000000      0.00000000      1.35406924
   H          0.84297303      0.48669071     -1.62974268
   H          0.00000000     -0.97338141     -1.62974268
   H         -0.84297303      0.48669071     -1.62974268
   H          0.84297303     -0.48669071      1.62974268
   H          0.00000000      0.97338141      1.62974268
   H         -0.84297303     -0.48669071      1.62974268
