           8
1 2
   N          0.00000000      0.00000000     -1.89569694
   N          0.00000000      0.00000000      1.89569694
   H          0.84297303      0.48669071     -2.17137038
   H          0.00000000     -0.97338141     -2.17137038
   H         -0.84297303      0.48669071     -2.17137038
   H          0.84297303     -0.48669071      2.17137038
   H          0.00000000      0.97338141      2.17137038
   H         -0.84297303     -0.48669071      2.17137038
