106
From PDB ID 2R61, hydrogens added by GaussView
 C   24.75200000   -0.42500000   33.22900000
 C   24.38400000    0.19800000   34.57600000
 C   24.55600000   -0.77200000   35.74900000
 C   23.94200000   -2.13800000   35.45300000
 C   24.41500000   -2.65900000   34.07800000
 C   23.82600000   -4.04100000   33.75300000
 C   24.60000000    2.53900000   34.90800000
 C   25.45200000    3.79000000   34.99400000
 N   25.22300000    1.37700000   34.73400000
 O   24.30900000    0.52400000   32.26600000
 O   24.03000000   -0.25900000   36.96000000
 O   24.31900000   -3.02700000   36.50700000
 O   24.15600000   -1.71500000   33.03800000
 O   22.51800000   -3.86800000   33.30000000
 O   23.35300000    2.56000000   35.01600000
 C   23.24700000   -3.60300000   37.06700000
 C   23.76000000   -4.86000000   37.74000000
 C   22.61400000   -5.63800000   38.35600000
 C   21.71100000   -4.74900000   39.21200000
 C   21.17900000   -3.63900000   38.29800000
 C   20.22900000   -2.68300000   38.99300000
 O   24.37500000   -5.64400000   36.75200000
 O   23.10200000   -6.74200000   39.08300000
 O   22.37700000   -4.21600000   40.35900000
 O   22.29100000   -2.89000000   37.86400000
 O   20.12100000   -1.55500000   38.16800000
 C   21.10200000   -7.71700000   39.74400000
 C   22.46500000   -7.96900000   39.07500000
 C   23.37900000   -8.91700000   39.85500000
 C   22.99100000  -10.36600000   39.64100000
 C   22.80300000  -10.74500000   38.16700000
 C   21.81300000   -9.77600000   37.54800000
 C   21.52400000  -10.04100000   36.06800000
 C   20.63000000   -8.91700000   35.57100000
 C   20.08500000   -9.16100000   34.15700000
 C   22.53400000  -13.20600000   37.72100000
 C   23.79900000  -13.18500000   36.95300000
 N   22.12100000  -12.03700000   38.24400000
 O   20.05300000   -7.62500000   39.05000000
 O   21.05000000   -7.53400000   40.98400000
 O   23.99600000  -11.24200000   40.16900000
 O   22.30200000   -8.44300000   37.71500000
 O   22.69000000  -10.17400000   35.22900000
 O   19.57600000   -8.77200000   36.54100000
 O   19.34700000   -7.98400000   33.75800000
 O   21.88100000  -14.25600000   37.85200000
 C   24.84800000    0.33200000   37.81800000
 C   24.18000000    1.29100000   38.77500000
 C   23.31500000    0.51500000   39.76800000
 C   24.15200000   -0.49500000   40.51100000
 C   24.81700000   -1.39500000   39.49700000
 C   25.70100000   -2.41400000   40.21900000
 O   23.32500000    2.13200000   38.05500000
 O   22.79800000    1.42200000   40.71200000
 O   25.16300000    0.20700000   41.16900000
 O   25.57300000   -0.62100000   38.54900000
 H   25.80224364   -0.61466216   33.15208078
 H   23.34555521    0.45583214   34.58341661
 H   25.61190468   -0.89194363   35.87381520
 H   22.87528778   -2.06730557   35.40797394
 H   25.47644637   -2.77983657   34.13825048
 H   23.76885689   -4.58127646   34.67481127
 H   24.39052947   -4.43705194   32.93486228
 H   25.35687078    4.21997338   35.96917861
 H   26.47600802    3.53719103   34.81401336
 H   25.12446096    4.49578869   34.25950664
 H   24.64785142    0.28369172   31.40053386
 H   22.15858778   -4.71579287   33.02857762
 H   24.44860843   -4.60564951   38.51847559
 H   22.00430629   -6.00857389   37.55859887
 H   20.90818617   -5.33239841   39.61204531
 H   20.63609819   -4.10555204   37.50270960
 H   20.69852952   -2.37031384   39.90221361
 H   19.26755247   -3.15175255   39.02110168
 H   24.85155356   -6.36643833   37.16742697
 H   21.78779444   -3.61483152   40.82055527
 H   19.67225875   -0.85229587   38.64385524
 H   23.21211714   -8.71077121   40.89159047
 H   24.35756905   -8.80274818   39.43756841
 H   22.05507184  -10.47619904   40.14774909
 H   23.71716353  -10.74743092   37.61094324
 H   20.88280397   -9.91532029   38.05812273
 H   21.04783066  -10.99681944   36.00038381
 H   21.19527345   -8.01298451   35.48087832
 H   19.38271803   -9.96545787   34.22443564
 H   20.92854017   -9.24058078   33.50354237
 H   24.52404342  -13.80066536   37.44306959
 H   23.62309879  -13.55815259   35.96572298
 H   24.16439981  -12.18099993   36.89497559
 H   23.78628917  -12.14861677   39.93306062
 H   22.41584709  -10.34026257   34.32412601
 H   19.05308687   -7.99463366   36.33156402
 H   19.14132937   -8.03735411   32.82180935
 H   24.93605281    1.84790120   39.28797681
 H   22.53334890    0.01506254   39.23509841
 H   23.55272832   -1.06223441   41.19218909
 H   24.06642708   -1.92493587   38.94863126
 H   26.06712203   -3.37415350   39.92073850
 H   24.78023094   -2.95859169   40.19654504
 H   26.36969541   -2.11695842   39.43828703
 H   23.01728995    2.83998675   38.62567441
 H   22.39992986    0.93609323   41.43797160
 H   25.77867722   -0.41430682   41.56462531
 H   21.25264531  -12.05314613   38.73968077
 H   26.22091454    1.31606418   34.71270701
 H   20.11525145   -7.49910697   38.10032864
