8
0 1
H          0.07091        0.79284        0.42504
H         -0.90040        0.27602        1.83685
H          0.88522        0.16838        1.89406
C          0.00326        0.07220        1.24929
O          0.00543        0.09892       -2.42046
H         -0.77384       -0.22414       -1.93899
H          0.75420       -0.23374       -1.89896
H         -0.04477       -0.95048        0.85318
