8
0 2
H         -0.29951       -3.09855        0.09303
H          0.75115       -1.63625       -0.96220
O         -0.25669        2.44873        0.30471
H         -0.76264        2.49185       -0.53019
P          0.04155       -1.71029        0.28262
H         -1.18829       -1.25628       -0.30353
N          0.60413        1.38309        0.10483
H          1.11031        1.37771        1.01073
