8
0 1
H          1.43634        0.37500       -1.12526
H          1.43031       -0.40263       -1.12437
S          0.07619       -0.00574        1.51549
H         -0.77519        1.00583        1.83317
H         -0.55164       -1.29768       -1.08050
Be        -0.24553       -0.00166       -0.75459
H         -0.83265       -0.96850        1.82436
H         -0.53782        1.29538       -1.08830
