8
0 2
H         -2.49553       -1.18927        0.73538
H          2.56053        0.20389        1.03370
Al        -1.77352        0.22729        0.48866
B          1.39970        0.16072        0.83939
Be         0.17828        0.12679       -0.91236
H          1.26918        0.10682       -1.72030
H         -1.25186        0.22798       -1.23708
N          0.11323        0.13578        0.77261
