8
0 1
H          0.00163       -1.32369       -0.56343
Li        -0.00154       -0.16771        0.62510
C         -0.00019       -0.43700       -1.32962
C         -0.00063        0.89418       -1.18564
H         -0.00020       -0.11325        2.58466
H          0.00176        0.62456        2.38314
H         -0.00177       -0.90761       -2.31839
H          0.00093        1.43052       -0.19582
