8
0 1
H         -0.40328       -1.77604       -0.37595
H         -0.81192        0.07305        1.94673
H          1.02945        1.06030       -2.35863
H         -1.37497        0.57024        2.17085
O         -0.11473       -0.85035       -0.42610
O          0.65718       -0.73039        0.87923
H          0.82324        0.39123       -2.06146
Na         0.19504        1.26195        0.22535
