8
0 2
H         -0.01170        2.20674        0.22932
Be         0.32852        0.73531        0.05522
H         -0.01879        2.05503       -0.61372
H          1.50529        0.09851        0.16278
H         -1.05503        0.19897       -0.26860
H         -1.04720        0.35352        0.57451
H         -0.07716       -3.12447       -0.05819
H          0.37607       -2.52360       -0.08132
