8
0 1
H          2.46299        0.68923        0.03284
H         -0.67042        0.30371       -1.05969
H         -0.64015        0.55360        0.92368
Li         0.68024       -0.37638        0.01191
H          2.75968       -0.00154       -0.05242
H         -2.41603        0.14953       -0.00696
H         -0.94517       -1.26353        0.14961
B         -1.23115       -0.05463        0.00103
