8
0 1
H         -0.46149        2.66846        0.48434
H         -0.72503        2.64936        1.19289
H         -0.29022       -0.68129       -2.45799
S         -0.91573        0.02569        0.81852
H         -0.05547       -1.18871       -2.96209
Cl        -0.71110       -2.13107        0.83573
H          2.24327       -0.72797        1.10577
Be         0.91577       -0.61447        0.98283
