8
0 1
H          0.01468        1.99207        1.94353
H         -0.01393        1.41627        2.42816
H          0.00425        2.06140       -1.18004
H         -0.47239       -1.04525        0.55448
H         -0.79293       -1.38472       -1.60656
Mg        -0.00088        0.38386       -0.86955
H          1.26110       -1.25358       -0.79996
Si         0.00010       -2.17005       -0.47006
