8
0 1
H          1.57141        0.32622        0.66710
H         -0.25306        1.99281        0.53991
C          0.58503       -0.05849        0.39239
C         -0.48928        0.95411        0.29352
S          0.08352        0.48606       -1.41103
F         -0.12099       -2.85813       -0.64746
Be         0.14718       -1.51224       -0.32974
H         -1.52380        0.66966        0.49532
