8
0 1
H         -0.52807       -2.63305       -0.33562
H         -0.34286       -2.26823        0.29861
H          0.06926       -0.23527       -0.92877
H         -0.90610        1.86473        0.53993
H          1.24578        0.93992       -0.87614
B          0.41244        0.43094        1.56438
N          0.24204        0.76393       -0.79292
N         -0.19249        1.13703        0.53052
