8
0 2
H          0.84361        0.31147       -0.41392
H          0.45680       -1.01519        1.56963
H         -0.10721       -1.28981       -1.35566
H         -1.11029       -0.35986       -0.88321
B          0.01157       -0.56570       -0.31148
O         -0.14009       -1.30795        0.85970
H          0.14995        1.71143        0.05480
F         -0.10434        2.51561        0.48015
