8
0 2
N          0.00059       -0.19842        1.86423
Be        -0.00487        0.64874        0.60603
H         -0.03975       -1.21342        1.88622
H         -0.04485        0.75215       -0.81962
H          0.04117        0.16365        2.81263
H          0.02224        1.93059       -0.02628
H          0.03871       -1.24505       -3.47726
H         -0.01324       -0.83825       -2.84595
