8
0 1
H          0.83262       -2.20145        0.76076
B         -0.23673       -1.65423        0.68264
F         -1.18121       -2.24615       -0.04858
H         -0.52157       -0.62083        1.22990
H          1.10003        0.45957       -1.03999
H          1.55437       -0.08627       -1.29102
Cl        -0.81023        2.64915        0.23111
H         -0.73729        3.70023       -0.52482
