8
0 1
Be        -0.87565        1.38211       -0.22330
Li         1.53597        1.95869       -0.21200
N         -0.94732       -0.67996       -0.33269
N         -1.90081        0.09755       -0.60843
H          0.45500       -0.64791        1.79947
Be         0.56963       -0.26425        0.48366
H         -1.18245       -1.69741       -0.43291
Cl         2.34563       -0.14883       -0.47380
