8
0 1
H          0.04463        1.67382        1.77187
H         -0.04313        1.52853        2.50793
H         -1.09896       -0.13217       -0.60982
H          0.19967       -1.67670       -0.87600
H          0.90557        0.20531       -0.56506
H         -0.00838       -0.27111       -2.29870
Na         0.00104       -0.86397        1.17311
B         -0.00045       -0.46372       -1.10334
