8
0 1
O          0.75742       -0.00510        0.75514
H         -1.01794        1.02757        1.02184
H         -0.96093       -0.60735        1.74144
C         -0.64191        0.00049        0.87802
H          0.38038        0.00572       -2.17342
H          0.12624       -0.00672       -2.88156
Al         2.47079       -0.00043        0.68709
H         -1.11404       -0.41418       -0.02857
