8
0 1
Cl        -2.71904        0.67420        0.40486
H          1.07715        1.95796        1.46100
F          0.44631       -1.71831        0.55278
H         -0.40796       -1.30210       -1.81803
Mg        -0.74868       -0.38146        0.28330
S          1.31964        1.31272        0.28694
H         -0.94623       -0.82067       -2.05402
H          1.97881        0.27766        0.88318
