8
0 1
H          0.12955       -1.69602        0.98313
C          0.06647       -1.21305       -0.00795
Si         1.21592        0.34264       -0.00773
H          0.43470       -1.95842       -0.73098
H          0.20314        2.56026        0.01208
H         -0.99470       -1.00983       -0.22333
N         -0.02398        1.56869       -0.00639
H         -1.03110        1.40573       -0.01884
