8
0 1
N          0.00030       -0.52119       -0.84477
H         -0.00056       -2.21771        0.79500
H         -1.40424        1.92869        0.07387
H          1.40403        1.92991        0.07192
H         -0.00144       -1.04220       -1.71480
B          0.00021       -1.08053        0.41604
Al         0.00009        1.19427       -0.11616
H          0.00162       -0.19123        1.31891
