8
0 1
H         -0.03750       -0.39587       -2.47591
Na         0.25230       -0.37467        0.02699
O          0.09284        1.50067       -1.02988
Si         0.15480        2.49856        0.24313
H         -0.41793       -2.03752        2.07237
H         -0.30906       -1.33279        2.32626
H         -0.03791       -1.14183       -2.62214
H          0.30245        1.28345        1.45917
