8
0 1
C         -0.95607        0.56095       -0.00047
H         -1.95628        0.97662        0.00009
B          0.37847        1.12441       -0.00020
H          1.03892        2.12248       -0.00003
Be         0.05928       -0.64327       -0.00095
H          0.47296       -2.14553        0.00022
H          1.29509        0.10505       -0.00065
H         -0.33237       -2.10071        0.00199
