8
0 1
H         -1.25215       -1.85346       -0.33303
N         -0.76190       -1.05650        0.08233
H          0.19879        3.23043        0.48523
F         -1.49144        0.10443       -0.20943
H          1.01565       -2.01530       -0.01366
C          0.60839       -0.97542       -0.08808
H          0.40274        2.53854        0.26868
O          1.27993        0.02728       -0.19204
