8
0 1
O         -1.24255        0.04689        0.68746
Al        -0.23525       -0.19859        2.30780
H          1.81620        1.62941       -1.13780
H          0.69035       -1.10905        0.88533
H         -2.06137        0.49164        0.42647
Be        -0.23889       -0.77976       -0.20297
H          1.50764        1.01400       -1.44547
H         -0.23613       -1.09454       -1.52083
