8
0 1
H          1.61283       -1.52833       -0.00015
Be         0.42599       -0.79902       -0.00126
C          0.13191        0.80324       -0.00097
H          0.15387        1.89491       -0.00189
B         -1.15718        0.10046        0.00068
Li         2.17555        0.37696        0.00121
H         -1.01447       -1.20023        0.00130
H         -2.32850        0.35202        0.00108
