8
0 1
N         -0.00044        0.74100        0.26684
H         -0.87766        0.40331       -1.59650
C         -0.00016        0.01765        1.31068
H         -0.00092       -1.09161        1.29020
H          0.88606        0.39237       -1.58950
C         -0.00026        0.07094       -1.02101
H          0.00046        0.50216        2.29476
H         -0.00708       -1.03582       -0.95546
