8
0 1
H         -1.19030        0.49985       -1.06691
B         -0.02392        0.21096       -1.05818
H         -0.09586       -0.59267        0.04561
H          0.33818       -0.38348       -2.05599
H          0.26066        0.37580        2.49987
H          0.80713        0.95510       -0.61100
H         -0.26450       -0.01356        2.87215
H          0.16862       -1.05199       -0.62555
