8
0 1
H          0.05610        2.01018        1.01868
H          0.65296       -3.13235       -0.03170
H         -1.34028        1.07607       -0.02551
Mg        -1.18413       -0.88210        0.05255
H          0.10348        1.96129       -1.04827
C          0.53491       -2.04611       -0.01929
B         -0.09869        1.38530       -0.00460
Al         1.27564       -0.37227        0.05815
