8
0 2
C          0.00016       -0.16124       -1.55130
H         -0.00749       -1.23794       -1.74207
H          0.00745        0.46712       -2.44490
H          0.00085       -0.71027        2.72459
B         -0.00021        0.43740       -0.15125
O          0.00109       -0.50831        0.85598
H         -0.00177        1.60460        0.12023
O         -0.00007        0.10865        2.18872
