8
0 1
H          0.74842        1.26851        0.59882
C         -0.16355        0.74665        0.30940
H          0.74849       -1.26857        0.59856
C         -0.16356       -0.74663        0.30935
H          1.21141        0.00004       -1.60315
H         -1.08115        1.25625        0.60788
P         -0.21890        0.00004       -1.42860
H         -1.08115       -1.25629        0.60773
