8
0 1
H         -0.43127        0.91467        1.72107
H         -1.05080        0.00078       -2.22505
C         -0.04799        0.00082        1.23395
H         -0.44864       -0.90753        1.71757
H          1.04558        0.00145       -2.11841
B         -0.03419        0.00028       -1.57456
H          1.04692       -0.01202        1.43929
C         -0.07961        0.00154       -0.19386
