8
0 2
H          0.99613        0.68061        0.90376
C         -0.03958        0.91602        0.61561
H         -0.87031       -2.73455        0.76048
H         -0.69029        1.37795        1.35841
H          0.74574       -0.76230       -1.53688
H          0.27249        0.70580       -1.25165
Mg        -0.14132       -1.50713       -0.19383
O         -0.27286        1.32360       -0.65590
