8
0 1
H          1.21010       -1.20434       -1.17831
H         -1.07848        0.37699        1.46829
S          0.75429        0.10688       -1.41884
P         -1.39316        0.22406       -1.10300
H          0.78964        1.41133        0.43008
C         -0.59522       -0.10797        0.60867
N          0.81652        0.38052        0.36978
H         -0.50369       -1.18746        0.82334
