8
0 1
H          1.06845       -0.58047       -0.74196
H          0.41166        2.33273       -0.13661
N          0.66243       -1.01916        0.09051
H          1.06784       -0.56710        0.91046
H         -1.08214        0.00100       -0.30813
H         -0.17773        2.33484        0.33088
H         -1.18875       -1.65009       -0.30768
N         -0.76176       -0.85175        0.16254
