8
0 1
H         -0.39057       -1.57697        1.06262
C         -0.22437       -0.54138        0.74332
O         -0.50889       -0.33441       -0.72907
C         -1.34322        0.41076        0.76331
C          0.79280        0.12954       -0.99217
P          1.64331       -0.01186        0.47754
H          0.95761        0.48563       -2.01089
H         -0.92668        1.43870        0.68535
