8
0 1
H          0.96554       -1.66680        1.16821
Mg        -0.60614       -1.35302        0.21807
C         -0.17540        1.69259       -0.10200
O         -0.55444        2.64507        0.48579
H         -2.07179       -2.20773       -0.06012
Li         1.77092       -0.21175        0.60924
H          0.41156        0.53156       -1.70105
C          0.25974        0.57009       -0.61814
