8
0 2
Al        -0.58497       -0.07970        2.33956
N         -0.58430        0.00649       -0.78179
H          2.64709       -0.35198        0.17684
H         -1.08682        0.04200       -1.66406
C         -1.20061       -0.00756        0.43360
H          0.42676       -0.02831       -0.85457
H         -2.29836        0.03183        0.31224
H          2.68121        0.38723        0.03816
