8
0 1
C          0.02368        0.21161        1.50283
F         -0.01078       -0.12499        2.81647
C          0.01566       -0.69899        0.53724
H         -0.01949       -1.76597        0.75531
H          0.05707        1.29462        1.36649
H         -0.06043        0.82669       -3.60134
H          0.04680       -0.37321       -0.50113
H         -0.05253        0.63025       -2.87586
