8
0 1
H          1.92102        0.73538       -1.48891
H          1.61327        1.36482       -1.17230
H          1.67341       -1.05243        0.57468
Al         0.64769        0.07352        0.20027
H         -2.52207       -1.96486        1.04452
O         -0.09517        1.62340        0.49825
H         -2.31346       -1.31532        0.72085
O         -0.92470        0.53549       -0.37736
