8
0 1
H          0.98055        2.74363        0.00283
H          0.04162       -2.42737        0.00073
H          1.66678       -0.60961       -0.00088
C         -0.27287       -1.37665        0.00014
H         -1.62336        1.72996       -0.00268
Al        -0.03571        1.50443       -0.00012
C          0.59977       -0.35005       -0.00068
H         -1.35678       -1.21436        0.00066
