8
0 2
C         -1.20658       -0.70602       -0.47902
Si        -0.81746       -0.45136        1.49909
C         -0.98754        0.57228       -0.43815
P         -0.93141        1.80380        0.76159
H         -1.49519       -1.51797       -1.13814
H          0.72090       -0.54361        1.49506
H          2.48116        0.27967       -0.52429
H          2.23612        0.56321       -1.17613
