8
0 1
Li        -0.48880       -0.51538       -0.00659
H         -0.55944        2.54233       -0.00436
H         -2.17580       -1.82520        0.01329
C         -0.08896        1.54088       -0.00480
H         -1.56083       -2.26841        0.00934
Cl         1.44004       -1.55839       -0.00318
H          1.87023        0.32576       -0.00203
S          1.56356        1.75840       -0.00167
