8
0 1
H          0.03917       -1.72102       -0.86368
H         -1.11463        1.71163        0.11198
H         -1.24147       -0.41774       -0.79056
S          0.01685        1.53186        0.88351
C         -0.30610       -0.80638       -0.36511
Si         0.10939       -0.79717        1.55677
C          0.78334        0.14547       -0.00252
H          1.71346        0.35334       -0.53039
