8
0 1
N          0.59571        0.21437       -1.09195
C         -0.48602        0.09989       -1.82116
Si         0.03813        1.09024        0.45769
H         -1.31094        0.68115       -1.26332
H          1.46555       -0.21451       -1.41817
H          0.20980       -1.27808        1.23844
H         -0.47411       -0.27019        2.40838
N         -0.03813       -0.32287        1.49009
