8
0 1
H         -0.08708        0.03502        1.13892
O          0.16725       -0.10404        2.07556
H         -0.72103        1.20063       -1.41514
H         -0.67253       -0.06795        2.56158
B          0.11589       -0.80177       -1.22336
H          0.09546       -1.97892       -1.31925
C          0.11937        0.57780       -1.09450
H          0.98267        1.13923       -0.72381
