8
0 1
H          0.48706       -1.08306       -1.36311
Al        -1.32809        0.53042        0.04869
Cl        -0.22242        2.33107       -0.24719
H         -2.83575        0.67745        0.54146
H          2.92349        0.31757        1.24794
P         -0.21394       -1.50846       -0.18265
H          2.50575        0.81462        0.86742
H         -1.31610       -2.07962       -0.91255
