8
0 1
B          1.27960       -0.33335       -0.02570
H          0.00135        1.64434       -0.58884
C         -0.00022        0.67438       -0.10029
H         -2.45186       -0.22205       -0.14303
H          2.45317       -0.21941       -0.11642
C          0.00188       -0.94297       -0.49843
P         -0.00468       -0.26736        1.50623
B         -1.27924       -0.33358       -0.03351
