8
0 1
N         -0.27449       -1.05454        0.69753
Al         0.04372        0.38481        1.93920
C          0.21775       -0.35771       -0.37877
H         -1.15496        1.28768       -0.21141
H         -0.06602       -2.05089        0.72854
H          0.35172        1.60393       -1.25150
H          1.06236       -0.75934       -0.95800
C         -0.18008        0.94606       -0.56559
