8
0 1
Si         0.09719        0.68712       -0.32935
Cl         0.07954       -3.56700       -0.00208
O          0.11034        2.34984       -0.19227
H         -1.13276        0.16930       -1.00260
H          1.37159        0.31803       -0.99965
H          0.06443       -2.51055        0.76660
H         -0.68332        2.76978        0.17628
Cl         0.09299       -0.21652        1.58306
