8
0 1
H         -0.93808        0.06516       -1.17552
C         -0.00010       -0.00174        1.01117
C         -0.00048        0.00180       -0.61792
C          0.08814        1.20922        0.46732
C         -0.09061       -1.21225        0.46524
H          0.60141       -2.04992        0.50969
H          0.93676       -0.06394       -1.17579
H         -0.59704        2.05167        0.51580
