8
0 1
H         -0.55265        1.15281        3.76579
H         -0.19818       -0.31436        2.11755
H          0.12426        0.54393       -1.66013
H         -0.10568        0.67802        4.14352
Cl        -0.15401       -1.81741       -2.90543
Cl        -0.11913       -0.98502        1.00784
H          1.19312        0.44972       -3.42555
P         -0.18772        0.29231       -3.04360
