8
0 1
H         -1.36817        0.33145        0.31184
H          2.82183        0.19869        0.86043
N         -0.93700        1.17531       -0.16783
H         -1.39877        2.08299        0.13344
Cl        -0.44086       -1.99042       -0.50006
H         -0.95631       -3.06876        0.01595
N         -0.02813        1.10100       -0.96626
H          2.30741        0.16973        0.31248
