8
0 1
H         -0.78385       -0.64452       -0.18670
C          0.22109       -1.04002       -0.03364
H         -2.71384        1.18451       -0.06834
H          0.29325       -2.11915        0.10671
H          1.52541        1.45703       -0.20508
Si         1.61142       -0.02072       -0.01398
H         -3.14389        1.73584        0.20779
H          2.99041       -0.55296        0.19324
