8
0 1
O          0.81248        0.88075        0.46455
C         -0.61661        0.92508        0.26788
S          0.05074       -1.81568        0.30127
H         -1.21303        0.68300        1.15413
C          0.20448       -0.12849       -0.34323
H         -0.98539        1.75043       -0.34968
H          0.45592       -0.07529       -1.40656
H          1.29140       -2.21980       -0.08836
