16
0 1
Na   -0.9817730    1.8980021   -1.2793582
H     2.3293211    0.0123766   -2.6218488
O    -1.5806838    2.5202167    0.6722840
H     0.4232405    0.7466871   -2.6705202
F    -2.2259699    0.9751451    2.4079572
H    -1.8751713   -1.6872052    0.7738686
H     1.4289482    0.5652587   -0.9167180
O     1.9744342   -1.0954047    1.1809165
N    -0.9276835    0.1902467    0.5573473
H     2.8668474   -0.8354744    0.9281448
H    -1.1825142   -1.1316796    2.1745065
Cl    0.5374633   -1.7036969   -1.7783046
B     1.2812396    0.1409010   -2.0736463
B    -1.6008987    1.3423523    1.2259180
N    -1.0606769   -1.2130598    1.1630402
Al    0.5938772   -0.7246657    0.2564130
