16
0 1
C    -0.0113696   -0.3554046   -2.5140065
O     0.7291665   -1.7188645    2.0314927
H    -1.1852876    0.8707630    1.8138775
Li   -0.4636793   -1.4503071    0.7605528
Mg    0.6852444    0.9867581   -0.5531832
Al   -1.9355623    0.2404425   -0.7491351
C    -0.1230120   -0.9698446   -1.2879948
H     0.1607293   -2.0332514   -1.2958635
H    -1.7788790    2.2228421    0.8644249
H     0.2612705   -0.8268140   -3.4587568
F     2.3207910    0.9849431    0.2972854
S    -0.6220263    1.3200658   -2.5940005
C    -0.9875694    1.4622741    0.9079228
H     0.5416723   -2.2457077    2.8174354
Na    2.4934534   -0.5484821    1.7757757
H    -0.0849421    2.0605873    1.1841730
