16
0 2
C    -1.9849655   -3.0761525   -0.6482809
H    -0.7685057   -1.5974732    1.2632681
B    -1.0553025   -1.8677510   -0.6895268
H    -2.2953106   -3.5239857    0.2962324
H    -2.3910015   -3.5581792   -1.5347798
Cl   -0.6649486   -1.2667935   -2.4276817
F    -0.0786580    2.3287231    0.7181870
N    -0.4850562   -1.1783747    0.3763647
C     0.9698865    2.8367152    1.7044569
H     0.3520002    3.3390061    2.4485309
S     1.9510844    1.4814710    2.2296146
H     0.8962848    0.0054520   -1.9834630
H     1.7769342    1.3362421   -1.8313677
O     1.4774580    0.5384883   -1.3718575
F     1.6158894    3.7849513    0.9639709
Mg    0.6842109    0.4176607    0.4863319
