16
0 2
S     1.3630227   -2.1287881   -2.1710631
H    -0.7436704    2.8026251    0.6304293
H    -2.1697856   -1.8385972   -0.4488740
H     1.5328044    1.2892314    2.9126505
Mg    1.2976691   -1.0624446   -0.0814873
N    -0.8028298    1.2173922   -0.9273280
O    -0.1285365    2.5506855    1.3942498
S    -1.5901380   -2.0557476   -1.6507496
N     0.0591274    0.6968674   -0.0328430
N     0.0027778   -2.5226483   -1.0092808
C     1.3631697    0.7033230    1.9896337
H    -1.0797513    0.5600131   -1.6672909
C     0.3691093    1.3660088    1.0716374
H    -0.0091466   -3.5372293   -0.9065079
O    -1.3966094    2.3551824   -0.8159291
N     1.9327871   -0.3958738    1.7127528
