16
0 1
H    -1.8845706   -0.2677111   -1.5802018
H     3.2395733   -1.2447766    1.9893628
C    -2.2981209   -0.1517584   -0.5810670
P     1.3602610   -0.2129781   -1.3577253
F    -2.0748880    0.7833760    1.7431936
B    -3.5291423   -0.7161976   -0.2637753
H     4.5316894   -0.7049831    0.8084951
N    -0.2759206    1.2353026    0.2965256
B    -1.5396627    0.6258937    0.4963534
H     0.2021087    1.7448927    1.0314953
B     2.4899420   -0.5639014    0.0560230
F    -4.6631905   -1.2228308    0.0705997
C     3.4699061   -0.8544325    0.9995214
N     0.4742127    1.1822895   -0.8977917
H     0.0233831    1.6778115   -1.6606044
H     0.4744194   -1.3099964   -1.1504045
