16
0 2
N    -2.5247750    0.2747565   -0.0117877
N    -1.1620942    0.8506164   -0.0327618
H    -1.6090585   -1.0888481   -1.0937757
F    -0.0491611   -1.3070638   -1.6057499
H    -0.3165149   -1.0504654    0.9320110
H     2.4847279    0.5316933    1.0704365
H    -0.8375036    0.9088145   -1.0083875
B     1.5791762    0.7508199    0.3048057
H     1.4246530    1.9046777    0.0031711
B    -0.0166080    0.1703122    0.9272130
H    -0.1733075    0.5431297    2.0489480
Al    1.0929973   -1.1994978   -0.3145784
H     1.9345481   -2.4709520    0.0330085
O    -2.5189296   -0.8680900   -0.7289206
H     1.9823293    0.2384115   -0.8179130
H    -1.2904792    1.8116853    0.2942808
