16
0 2
N     0.9103223    1.0307987   -3.0419182
H    -0.4473861   -1.4608652    1.7225374
H     0.2248808   -0.5986963    3.1482089
C     0.3867847   -0.8600228    2.0968273
H     1.1020800    1.3131629   -2.0726642
P     0.4930534    0.6463363    1.1236690
H     1.3185320   -1.4231128    1.9932670
H     1.1567616    1.6024263   -3.8483857
Li   -0.4402876   -0.7333203   -1.5036959
Cl   -1.7633375   -2.2095006   -0.5641237
O     0.5622268    0.4611620   -0.3778202
H    -0.5382830    1.4917247    1.5554356
H    -2.3287203   -0.7136246    0.4400680
O     0.1256727    0.0259705   -3.2261509
H     1.6487352    1.3037065    1.5997609
F    -2.4110351    0.1238547    0.9549848
