16
0 1
Li    1.0928625    0.0434901   -1.7557828
Cl   -1.2279159   -2.8929292   -2.1392631
F     1.1962299   -1.6035034   -2.4561761
H    -0.0785287   -0.2311005    2.8911575
H     0.6641532    1.9698902    1.6534759
Na   -1.9625666   -0.9045698   -0.7644044
B    -0.2687685   -0.0458454    1.7215938
H     1.0366035   -0.3681109    0.7926051
C    -0.0720207    1.3963775    1.0657223
H    -1.0776781   -0.8145733    1.2448115
H     0.5383462    2.3844644   -0.7480454
F    -0.6422696    0.7680864   -1.3017912
C     0.5289643    1.3698399   -0.3235856
H     0.9670991   -0.8939463    1.3865146
H    -1.0080309    1.9829484    1.1201133
H     0.3135203   -2.1605181   -2.3869455
