29
 generated by VMD
 Fe        7.626976       29.503696       11.933761
 Fe        6.377661       27.744249       13.184752
 Fe        8.960515       27.583815       13.068521
 Fe        6.798777       30.069023       14.324387
 N         7.873109       28.812202       13.702669
 O         8.097920       28.093800        9.405583
 O         5.331866       31.046101       10.923635
 O         9.740605       31.515726       11.621743
 O         6.301008       25.689825       11.096639
 O         3.654779       28.675123       12.598853
 O         5.767835       26.080755       15.536269
 O         9.522722       25.626360       10.950438
 O        11.610523       28.824894       13.114210
 O         9.327261       25.722822       15.290165
 O         8.660961       32.284901       14.752878
 O         4.390539       31.728962       13.920752
 O         6.297049       29.340214       17.112801
 C         7.930481       28.606581       10.416805
 C         6.230993       30.454624       11.343963
 C         8.922644       30.738941       11.748450
 C         6.364500       26.486919       11.917800
 C         4.729234       28.352730       12.849831
 C         6.015522       26.715385       14.632261
 C         9.311031       26.375225       11.766726
 C        10.597993       28.345116       13.086188
 C         9.199353       26.425995       14.416615
 C         7.900120       31.424339       14.601803
 C         5.316795       31.079102       14.080353
 C         6.488688       29.634684       16.034571
