6
0 1
C         -0.29406        0.57696        0.00000
O          0.27239        1.66772        0.00000
N          0.31682       -0.61840        0.00000
H         -0.24001       -1.45296        0.00000
H          1.33734       -0.68370        0.00000
H         -1.39247        0.51038        0.00000
