36   

O        0.3000000000   -1.0910000000   -0.6330000000
H       -0.4390000000   -0.8620000000   -0.0190000000
H        0.1740000000   -2.0120000000   -0.8960000000
O        2.7390000000   -0.2860000000    0.4860000000
H        3.0390000000   -1.1530000000    0.8770000000
H        2.0020000000   -0.6110000000   -0.0560000000
O       -1.9830000000   -0.3050000000    0.7960000000
H       -2.3370000000    0.5600000000    0.6920000000
H       -1.9570000000   -0.4760000000    1.7250000000
O       -1.2230000000    2.6730000000   -1.1160000000
H       -2.0300000000    2.4590000000   -0.5810000000
H       -1.1050000000    1.9960000000   -1.7780000000
O        2.2900000000    2.0170000000    1.8980000000
H        1.7820000000    2.5870000000    1.2790000000
H        2.2990000000    1.1700000000    1.4010000000
O       -0.7930000000    0.5050000000   -2.8710000000
H       -0.2450000000   -0.2470000000   -2.4870000000
H       -0.5140000000    0.5970000000   -3.8110000000
O        1.0520000000    3.7120000000    0.2390000000
H        0.4740000000    3.1320000000   -0.3620000000
H        0.4900000000    4.2600000000    0.7660000000
O       -0.2150000000   -3.2390000000    1.6920000000
H       -0.4330000000   -2.4170000000    2.1800000000
H        0.4600000000   -3.6090000000    2.2590000000
O        0.4560000000   -3.9690000000   -1.0250000000
H        0.0980000000   -4.1200000000   -0.1650000000
H        1.4240000000   -4.1060000000   -1.0260000000
O       -3.4750000000   -2.3860000000   -0.0860000000
H       -3.5420000000   -2.2880000000   -1.0710000000
H       -2.9970000000   -1.5740000000    0.1970000000
O       -3.2060000000    2.2670000000    0.7570000000
H       -4.1230000000    2.5030000000    0.5310000000
H       -3.2280000000    2.3890000000    1.7670000000
O        4.9680000000    0.8690000000   -0.8350000000
H        4.1300000000    0.5460000000   -0.4170000000
H        5.6700000000    0.5090000000   -0.3040000000
