44
LIVFEB
S       0.815739    1.276051    1.475742
S       2.612155    1.957293    0.785998
S       3.996597    0.541355    1.275023
O       5.120570    1.136163   -2.942361
O       6.496803   -2.859172   -2.490743
O       5.267597   -1.696852   -3.966485
O       0.461232    1.570611   -3.530833
O       1.094866   -2.835289   -0.764102
N       4.903388   -1.404566   -1.790507
C       3.993612    0.700577   -2.700586
C       3.759264   -0.602769   -2.034563
C       2.527073   -1.012197   -1.733484
C       1.386681   -0.095533   -1.957012
C       1.495645    0.653947   -3.291339
C       2.780826    1.489863   -3.122552
C       5.625836   -2.064200   -2.741642
C       5.908695   -2.406527   -5.029384
C       1.656106   -0.321856   -4.411261
C       1.859854   -1.191890   -5.205014
C       2.107636   -2.401978   -5.921216
C       2.389002   -3.539278   -5.264317
C       2.472591   -3.500609   -3.847878
C       2.443484   -3.183303   -2.696024
C       2.317355   -2.502060   -1.395911
C       0.464217    0.235421   -1.040090
C       0.469442   -0.152398    0.394596
C       4.168253    0.726735    3.049563
H      -0.258977    1.163458   -3.599260
H       0.493324   -2.887605   -1.334327
H       5.166843   -1.483039   -0.964821
H       2.977110    1.934547   -3.973328
H       2.614394    2.188165   -2.456529
H       5.587026   -2.072161   -5.882441
H       5.705693   -3.352760   -4.956396
H       6.868475   -2.276875   -4.974643
H       2.072558   -2.401978   -6.860947
H       2.527073   -4.342211   -5.731902
H       3.061446   -2.797758   -0.814281
H      -0.255245    0.764266   -1.336607
H       1.149348   -0.841602    0.542854
H      -0.402272   -0.533394    0.631809
H       4.816067    0.085298    3.380294
H       3.310720    0.568650    3.476092
H       4.469770    1.625202    3.254844
