21
Coordinates from ORCA-job PBCpMns3_1_D4
  Mn  6.35701522031544     -1.52887771324573      5.94748194674201
  C   5.76364610149167     -1.49678376191392      8.03211254862400
  C   6.70908265783894     -2.52889139605701      7.84399964608267
  C   7.90054137869776     -1.95344924949301      7.33731513431914
  C   7.69172842174174     -0.54936886136969      7.21406154072980
  C   6.36146083865609     -0.27077037334676      7.64418260587798
  H   4.74472547450997     -1.62689556741790      8.36720162337381
  H   6.53478389993827     -3.58257690774028      8.00802137715126
  H   8.80243063207687     -2.48794561503291      7.07813497103734
  H   5.88867714604870      0.69989091252015      7.66405697884038
  C   6.87100928733406     -2.27035175458171      4.02952169491390
  C   5.63110302067257     -2.85514073123018      4.38774657829426
  C   4.69352565334674     -1.81808838244381      4.58770717238501
  C   5.34416076624223     -0.57993498691858      4.35454384667075
  C   6.69806844343831     -0.85616393419764      4.00412114470866
  H   7.78785399198549     -2.80319399063656      3.82523191413922
  H   5.44726688288859     -3.90972152422117      4.53469236972922
  H   3.67048530828125     -1.94521029924634      4.91122562717330
  H   7.45366072272995     -0.12630238059089      3.75541971231662
  H   4.89441779456439      0.39836894522383      4.43680303919344
  H   8.41381776520087      0.17399427694017      6.86648271469709
