21
Coordinates from ORCA-job PBCpNi_0
  Ni  6.36278916937441     -1.52048996042778      5.94499909166204
  C   5.76587113457620     -1.50003753228438      8.05516158567100
  C   6.71475904100318     -2.53269371550541      7.85841736183915
  C   7.92526619458367     -1.93826260506051      7.42621196982983
  C   7.72454945000350     -0.53818312210067      7.35594001386639
  C   6.38998904301950     -0.26732500131015      7.74461369572703
  H   4.74125102446624     -1.63124178405743      8.36868379407402
  H   6.54030938221971     -3.58915588665041      7.99556313056013
  H   8.83549744692485     -2.46200531096837      7.17616814961997
  H   5.92461435276501      0.70609803602032      7.77979093626234
  C   6.83753958209718     -2.27880098598020      3.94263932884792
  C   5.62126789809260     -2.86078780615407      4.37560994160341
  C   4.68179072333282     -1.81882054774107      4.56839765622171
  C   5.31747415938935     -0.59284713221636      4.25479169874128
  C   6.64980117370144     -0.87713907317865      3.86800229840473
  H   7.75266088009132     -2.80876135321546      3.72573620620017
  H   5.44650247696072     -3.91226332027128      4.54651057199777
  H   3.66528998076018     -1.93669568568819      4.91219314488259
  H   7.39666968200541     -0.15116137956871      3.58426446699699
  H   4.87058922087823      0.38782208371082      4.31758025486992
  H   8.45485398375437      0.19256208464800      7.04282870112151
