21
Coordinates from ORCA-job PBCpFe_0_gas
  Fe  -1.32318522632372     -0.62151810350236     -0.76494571163846
  C   -1.71243576884544      0.32571623363961      1.00117075949018
  C   -1.87271735266528     -1.07799644104269      1.14746586051982
  C   -0.63470860780468     -1.69677694453977      0.82821952705425
  C   0.29068719143303     -0.67552686036826      0.48450688378884
  C   -0.37537733604637      0.57446470071287      0.59151974853921
  H   -2.48027504732679      1.07006103262598      1.14537427105994
  H   -2.78373261311767     -1.58700222968819      1.42201756339145
  H   -0.44038768701926     -2.75817162396029      0.81764142124741
  H   0.05049149263693      1.54087798712029      0.36986548714540
  C   -0.63569888597773     -0.90086988244238     -2.66698114718185
  C   -1.56180426600491     -1.92082993377163     -2.32130681425873
  C   -2.79883567148860     -1.30032787036704     -2.00159456672746
  C   -2.63728079672056      0.10305194159390     -2.14947702389954
  C   -1.30031610537347      0.34991709001225     -2.56066059360820
  H   0.39970506449767     -1.04804918912482     -2.93291625585054
  H   -1.35322005027286     -2.97869721351767     -2.27851565403155
  H   -3.69468021546745     -1.80419464411291     -1.67296037126164
  H   -0.85827923747207      1.31937596539902     -2.73153679512329
  H   -3.38880148103540      0.85207035870459     -1.95298711517542
  H   1.31113660039466     -0.82513937337050      0.16707852652024
