7
0 1
C     2.1092353   -1.2865331    0.0017769 
C     1.4781895    0.0752809   -0.0004395 
H     3.1956777   -1.1825244   -0.0011265 
H     1.7719096   -1.8426244   -0.8776079 
H     1.7763453   -1.8373208    0.8862165 
O     2.0119357    1.1370977   -0.0033556 
Cl   -0.3498529   -0.0420299    0.0022622 
