9
0 1
Fe   -0.0285962    0.2747421    0.5326945 
O     0.1120551    0.1764320    3.4940645 
C     0.0549207    0.2335620    2.3470707 
C    -0.0787728    0.0814447   -1.2730514 
O    -0.1059369   -0.0716641   -2.4123237 
C    -1.7206304    0.8107378    0.5726775 
O    -2.7594273    1.3208847    0.5895382 
C     1.4518325    1.2498327    0.4367606 
O     2.3109384    2.0227594    0.3722198 
