7
0 1
Ni   -0.7629039   -0.2803608    0.4889495 
C     0.9417181   -0.5614688   -0.0291272 
C    -1.6112009    1.2380907    0.0119109 
C    -1.6202975   -1.5176032    1.4825547 
O     2.0270968   -0.7402781   -0.3595063 
O    -2.1515398    2.2049067   -0.2921948 
O    -2.1666934   -2.3052194    2.1152351 
