17
0 1
Ni   -0.0000526    0.0000723    0.0001532 
C    -1.5825426    1.2288356    0.2305343 
C    -1.9358346    0.0000125   -0.3772677 
C    -1.5825314   -1.2286700    0.2307987 
C     1.5823664   -1.2287296   -0.2307019 
C     1.9357969    0.0000182    0.3771586 
C     1.5824034    1.2288434   -0.2305840 
H    -1.7018042    2.1538221   -0.3246329 
H    -1.5964628    1.3294741    1.3159274 
H    -2.2008590   -0.0001072   -1.4349714 
H    -1.5963967   -1.3290529    1.3162179 
H    -1.7018050   -2.1537877   -0.3241460 
H     1.5959607   -1.3292817   -1.3161039 
H     1.7017766   -2.1537639    0.3243577 
H     2.2010510   -0.0000456    1.4348069 
H     1.7018117    2.1538069    0.3245951 
H     1.5960740    1.3295283   -1.3159728 
