49
0 1
Pd    1.2582596   -1.3791751    2.2078061 
Cl    3.1836505   -2.6086201    2.4305681 
C    -2.7728013   -0.2505353    2.3253711 
C    -0.5104359   -0.4528248    2.2881859 
N    -1.7039445   -1.1317127    2.3724169 
H    -2.7505985    1.9474604    2.1722727 
N    -0.8690105    0.8687899    2.2230858 
H    -3.7997704   -0.5657606    2.3790393 
C     1.4721087   -0.7859707    0.3352042 
C     2.7205649   -0.2736802   -0.0366894 
C     2.9226544    0.1862747   -1.3393400 
C     1.9060914    0.1363295   -2.3012355 
C     0.6710236   -0.3924547   -1.9151870 
C     0.4482056   -0.8463182   -0.6118661 
H     3.5339778   -0.2424409    0.6795205 
H     3.8986685    0.5850785   -1.6102081 
H    -0.1413145   -0.4417806   -2.6383329 
H    -0.5326489   -1.2240956   -0.3459398 
C     2.1473885    0.6097762   -3.7141438 
H     1.2048556    0.8386011   -4.2211864 
H     2.6627372   -0.1591796   -4.3038846 
H     2.7737958    1.5078758   -3.7315321 
C    -1.8302217   -2.6178928    2.5745850 
C    -3.3022031   -2.9657669    2.8244781 
C    -1.3331362   -3.3511086    1.3226579 
H    -3.9294896   -2.7240490    1.9604750 
H    -3.3717131   -4.0434789    2.9928319 
H    -3.6967260   -2.4583702    3.7108377 
H    -1.1705298   -4.0767774    4.0278592 
H    -1.2908201   -2.4236101    4.6797514 
H    -0.2810281   -3.1111195    1.1338324 
C    -1.0049605   -3.0178912    3.8069842 
H    -1.9314711   -3.0745197    0.4487023 
H    -1.4205927   -4.4310457    1.4771685 
H     0.0702714   -2.8897730    3.6207538 
C    -2.2516228    0.9961937    2.2258586 
C     0.2696561    2.4499489    0.6911675 
H    -0.6853709    2.6275849    0.1855877 
H     0.8603994    3.3706786    0.6456801 
C     0.0384134    2.0730263    2.1614608 
H     1.9617049    2.7021481    2.8604960 
C    -0.6578507    3.2347566    2.8922127 
H    -0.9591284    2.9447505    3.9036432 
H     0.8068105    1.6620862    0.1623200 
H     1.9259167    0.9901321    2.3845174 
H    -1.5327584    3.6061660    2.3502591 
H     0.0518204    4.0629041    2.9684655 
C     1.3619933    1.7864517    2.8755110 
H     1.1906127    1.4979890    3.9171934 
