30
0 1
Ir   -0.1852522    0.1502643    0.0942809 
P    -2.4944975    0.3208462   -0.0075956 
C    -3.4826705   -0.9825593    0.8180789 
C    -3.1494273    1.8724493    0.7128693 
H    -4.2325656    1.9493924    0.5681124 
H    -4.2400777    0.5094020   -1.7168733 
H    -2.6448718    2.7108707    0.2259370 
H    -2.6522711    1.1386179   -2.2650328 
H    -3.2295733   -1.0102272    1.8814154 
H    -2.9187940    1.8986136    1.7812039 
C    -3.1576854    0.3406881   -1.7150014 
H    -4.5553169   -0.7945009    0.7039504 
H    -2.9337529   -0.6135490   -2.1992329 
H    -3.2357731   -1.9547582    0.3828714 
P     2.1307031    0.2285988    0.0435304 
C     3.0478448   -1.1142844    0.8876608 
C     2.8314110    0.2245242   -1.6489277 
H     2.3720868    2.6104224    0.2846436 
H     3.9193391    1.7851077    0.6620806 
H     2.5768427    1.7865412    1.8444160 
C     2.8309205    1.7518847    0.7816637 
H     2.3684883    1.0412896   -2.2086130 
H     3.9191638    0.3523787   -1.6268729 
H     4.1293731   -0.9703671    0.7952319 
H     2.7700399   -2.0754971    0.4467425 
H     2.5824324   -0.7203117   -2.1393344 
H     2.7725468   -1.1315792    1.9456947 
C    -0.2271099   -1.3885907    1.0663446 
O    -0.2541982   -2.3779986    1.6910268 
Cl   -0.1305494    2.1660945   -1.1806593 
