34
0 1
C     0.0340490   -4.3718894    0.5513428 
C     1.3581387   -4.1410783    0.7485139 
N     1.5275475   -2.7644741    0.7267442 
C     0.3414927   -2.1175416    0.5364869 
N    -0.5676621   -3.1283112    0.4170676 
H    -0.5226813   -5.2934082    0.4903637 
H     2.1809632   -4.8224333    0.8955029 
C    -1.3610370    3.8551915    1.4487541 
C    -0.3515925    1.8974035    0.8819066 
N    -1.5323164    2.5007170    1.2033693 
H     0.5145474    5.0396187    1.3421034 
I     0.0133697   -0.3288100    3.2725444 
N     0.5556234    2.9165918    0.9106110 
H    -2.1796457    4.5004061    1.7252758 
Rh   -0.0060169   -0.0989078    0.5768726 
C    -0.0213795    0.0547581   -1.2344395 
O    -0.0319395    0.1533751   -2.3965819 
C    -0.0415927    4.1191795    1.2623927 
C     1.9807966    2.7206024    0.6738306 
H     2.5376759    2.8406915    1.6075301 
H     2.3389432    3.4362015   -0.0715448 
H     2.0994919    1.6979687    0.3080546 
C    -2.7816189    1.7652412    1.3638970 
H    -3.5954747    2.3084287    0.8759290 
H    -2.9996639    1.6224421    2.4257649 
H    -2.6364187    0.7887565    0.8967277 
C    -1.9974637   -2.8971622    0.2500980 
H    -2.3757894   -3.4817867   -0.5931106 
H    -2.1215957   -1.8285950    0.0592368 
H    -2.5320121   -3.1682345    1.1650223 
C     2.7818263   -2.0640919    0.9790182 
H     2.6272388   -1.0231129    0.6867845 
H     3.5828535   -2.5153357    0.3871755 
H     3.0255345   -2.1020513    2.0442337 
