65
0 1
Ru   14.3039488   10.6287873   11.4973218 
Cl   13.6525290    9.4633027    9.6202008 
Cl   15.9540866   11.0306854   13.0517362 
C    13.9099095   12.3413635   10.9689206 
H    13.0719044   12.9128842   11.3657389 
C    16.3020402   14.5898731    8.2544245 
C    15.2616850   15.1983561    8.9607784 
C    14.4828299   14.4473589    9.8339834 
C    14.7325750   13.0708050   10.0245053 
C    15.7833836   12.4722225    9.2958309 
C    16.5576128   13.2248567    8.4234795 
C    12.9070894   10.2456003   12.7606410 
N    11.9592613   11.0267043   13.3536805 
C    11.0911680   10.2686803   14.2765143 
C    11.8522814    8.9489156   14.4409718 
N    12.8052729    9.0024131   13.3223807 
C    15.0637310    5.6602179   12.0569922 
C    15.5084731    6.4497822   13.1170829 
C    14.7742500    7.5472507   13.5825951 
C    13.5775331    7.8635511   12.9210434 
C    13.0609875    7.0431757   11.8993116 
C    13.8239401    5.9568565   11.4780317 
C    10.9377858   14.9650977   12.2379373 
C    10.4182545   13.8693503   11.5397646 
C    10.7359607   12.5560286   11.8932511 
C    11.5956861   12.3573242   12.9852493 
C    12.1404655   13.4283948   13.7066763 
C    11.7972668   14.7255017   13.3144541 
C    15.2357414    8.2958253   14.8056592 
C    11.7021318    7.3113087   11.3075793 
C    15.8999628    4.5175433   11.5371212 
C    10.2641793   11.3910490   11.0626065 
C    13.1302829   13.1801970   14.8143003 
C    10.5696743   16.3740714   11.8423050 
H    16.9095726   15.1747611    7.5696148 
H    15.0594302   16.2574513    8.8263720 
H    13.6716135   14.9108213   10.3903532 
H    15.9735230   11.4062757    9.4005987 
H    17.3607798   12.7503101    7.8672164 
H    10.9730497   10.8142930   15.2162578 
H    10.0990412   10.1275518   13.8292237 
H    12.3915239    8.8957055   15.3951676 
H    11.2078756    8.0702308   14.3539132 
H    16.4512452    6.2086027   13.6042409 
H    13.4449136    5.3302669   10.6734278 
H     9.7687728   14.0400188   10.6834820 
H    12.2269229   15.5679497   13.8526929 
H    14.8141040    9.2998462   14.8527679 
H    14.9418495    7.7446044   15.7093230 
H    16.3240741    8.3938822   14.8128925 
H    11.5153064    6.6430133   10.4635881 
H    10.9138637    7.1443960   12.0537189 
H    11.6221088    8.3405795   10.9522493 
H    15.2759559    3.6601395   11.2645591 
H    16.4493620    4.8217187   10.6373548 
H    16.6332355    4.1915303   12.2805355 
H    11.1153189   10.9141040   10.5609308 
H     9.7753342   10.6234045   11.6723448 
H     9.5556818   11.7240022   10.3001122 
H    13.4378087   14.1232070   15.2734305 
H    12.7069606   12.5403412   15.5973375 
H    14.0200228   12.6708710   14.4264260 
H    11.3364898   17.0872575   12.1590076 
H    10.4411062   16.4605333   10.7587900 
H     9.6238034   16.6750420   12.3102414 
