24
0 1
P    -1.0459591    2.2923739   -0.1672641 
P    -0.5231831   -2.1942197    0.3344264 
C    -0.7244067    0.6206710    0.5955397 
C    -0.7173397   -0.5091978   -0.4420127 
H    -1.5202259    0.4422566    1.3294949 
H     0.2254608    0.6504651    1.1470044 
H    -1.6685214   -0.5135082   -0.9889082 
H     0.0814941   -0.3561055   -1.1807027 
C     1.2811792   -2.1218223    0.7664743 
H     1.6191452   -3.1178100    1.0704446 
H     1.4345424   -1.4463541    1.6135307 
H     1.8933558   -1.7812193   -0.0780520 
C    -0.4016467   -3.2020373   -1.2195381 
H     0.3411034   -2.7969510   -1.9178560 
H    -1.3776338   -3.2276924   -1.7146190 
H    -0.1260078   -4.2309274   -0.9668653 
C    -0.8105564    3.3374355    1.3485517 
H    -0.8102601    4.3951985    1.0664758 
H     0.1286750    3.1080937    1.8668710 
H    -1.6454458    3.1737181    2.0373803 
C     0.6037570    2.5809593   -0.9689402 
H     0.7111194    1.9327001   -1.8438758 
H     1.4355409    2.3912086   -0.2789209 
H     0.6597523    3.6180834   -1.3151256 
