27
0 1
O    -0.5013483   -1.6734498    0.4734074 
C     0.7600975   -1.4476131    0.5401182 
C     1.3888712   -0.1977598    0.4253957 
C     0.7650159    1.0421091    0.2152095 
H     2.4700904   -0.1891574    0.5076557 
C     1.6041323   -2.6809766    0.7646478 
H     1.2902990   -3.1695334    1.6932719 
H     2.6692055   -2.4469896    0.8201266 
H     1.4302248   -3.3909588   -0.0510434 
O    -0.4954412    1.2479436    0.0903594 
C     1.6137242    2.2888791    0.1189890 
H     1.4358992    2.7735815   -0.8469083 
H     2.6785308    2.0717854    0.2251192 
H     1.3075922    2.9950292    0.8983027 
Rh   -1.9153140   -0.2237109    0.1763932 
C    -3.2891583    1.3375075    0.5786319 
C    -3.2959201   -1.6224502    0.9663524 
C    -3.1856103    1.1547985   -0.8098670 
H    -2.7240915    2.1273498    1.0680801 
H    -3.9827354   -1.4713946   -1.0866388 
H    -4.1654056    0.9903467    1.1194477 
C    -3.1906561   -1.8055197   -0.4219697 
H    -4.1711075   -1.1438196    1.3973653 
H    -2.7346467   -2.2610974    1.6444643 
H    -2.5403468    1.8029643   -1.3983093 
H    -2.5474823   -2.5861653   -0.8215206 
H    -3.9801762    0.6633970   -1.3648742 
