59
0 1
Ru   -0.1520406   -0.3148398   -0.4337981 
P     0.2913714    1.7471098    0.4530202 
P    -0.2240687   -1.7291878    1.3852643 
P     2.0245207   -0.9974653   -0.8766806 
P    -2.4525095   -0.0647227   -0.3487018 
H     0.1735539   -1.8722970   -2.8051123 
C    -0.5543761   -1.1656285   -2.4018567 
C    -0.2753164    0.2588154   -2.5163352 
H     0.6527565    0.5736862   -2.9852919 
C     1.9961120    2.4786816    0.4061107 
C    -0.0976691    2.2072210    2.2114093 
C    -0.5697669    3.1457023   -0.4094286 
C    -0.6227230   -3.5308803    1.1340333 
C     1.2712588   -1.9543568    2.4683841 
C    -1.3985937   -1.4218814    2.7953160 
C     2.7799112   -0.5387421   -2.5027690 
C     3.4858040   -0.5570201    0.1799255 
C     2.2775340   -2.8283311   -0.9917911 
C    -3.3109538    0.7144513   -1.7916877 
C    -3.3108569    0.8977901    0.9819497 
C    -3.4474254   -1.6239942   -0.2861845 
H    -1.5692141   -1.5162307   -2.5995408 
H    -1.0871146    0.9310395   -2.7799951 
H     2.4052755    2.3895902   -0.6046103 
H     2.6506585    1.9421941    1.0970007 
H     1.9764775    3.5376219    0.6905087 
H     0.5052064    1.5844803    2.8802575 
H    -1.1511083    2.0098371    2.4239796 
H     0.1162761    3.2633989    2.4189456 
H    -0.2816529    3.1273441   -1.4642790 
H    -0.3107726    4.1193403    0.0243474 
H    -1.6534029    3.0123479   -0.3579342 
H    -0.6209419   -4.0911956    2.0775546 
H     0.1067423   -3.9721178    0.4509852 
H    -1.6052987   -3.6195298    0.6642951 
H     1.0502796   -2.6328094    3.3004602 
H     1.5709462   -0.9820445    2.8714205 
H     2.1109180   -2.3636242    1.9027427 
H    -1.2565235   -2.1685691    3.5850371 
H    -2.4367982   -1.4708428    2.4598825 
H    -1.2160655   -0.4263477    3.2092173 
H     3.7819221   -0.9748207   -2.5765496 
H     2.8551763    0.5490581   -2.5850812 
H     2.1685684   -0.9086979   -3.3293573 
H     4.3117872   -1.2528738   -0.0051611 
H     3.2286057   -0.5779399    1.2392489 
H     3.8179625    0.4515280   -0.0748751 
H     3.2745682   -3.0660999   -1.3798600 
H     1.5163664   -3.2480266   -1.6540072 
H     2.1663769   -3.2893107   -0.0078448 
H    -4.3924808    0.7077422   -1.6196805 
H    -3.0927012    0.1615632   -2.7085473 
H    -2.9742879    1.7461960   -1.9206605 
H    -4.3981016    0.8007217    0.8858596 
H    -3.0459988    1.9548805    0.8951193 
H    -3.0074258    0.5506471    1.9702623 
H    -4.5183647   -1.4169020   -0.3924607 
H    -3.2823515   -2.1454941    0.6588962 
H    -3.1191170   -2.2778056   -1.0983057 
