74
0 1
Ru   -1.3407626    0.6861119   -0.0391745 
Cl   -3.3176332    1.2793918    1.0566894 
P     0.9130972   -0.0001589   -0.0324161 
Cl   -0.4749944    2.6448470    1.0015913 
C    -1.1261016    1.4912958   -1.6645245 
H    -1.4084706    1.0810994   -2.6395944 
H    -0.7527731    2.5224570   -1.6844729 
C     1.2752752   -0.1126158    1.7869269 
C     1.9758906    1.3557533   -0.7402128 
C     2.5570459   -0.8236968    2.2485518 
H     1.3372350    0.9530244    2.0521490 
C     2.7306941   -0.6679078    3.7676357 
H     2.4938380   -1.8925680    2.0076927 
H     3.4334301   -0.4275324    1.7285351 
C     1.5143731   -1.2138189    4.5256757 
H     3.6447153   -1.1816904    4.0890148 
H     2.8607136    0.3970700    4.0047153 
C     0.2209227   -0.5415358    4.0490564 
H     1.4433985   -2.2984387    4.3579818 
H     1.6419196   -1.0672603    5.6045582 
C     0.0488613   -0.6798267    2.5313929 
H    -0.6481503   -0.9707945    4.5603188 
H     0.2453826    0.5270069    4.2994089 
H    -0.0946177   -1.7357427    2.2659967 
H    -0.8650507   -0.1395161    2.2353243 
C     1.4828427   -1.5623645   -0.8892150 
C     2.0524712    1.2917000   -2.2755201 
H     1.3638532    2.2285400   -0.4782857 
C     2.6576883    2.5904623   -2.8262239 
H     2.6684103    0.4449680   -2.6025942 
H     1.0494023    1.1373157   -2.6933939 
C     4.0371629    2.8560703   -2.2096890 
H     2.7302483    2.5338686   -3.9189350 
H     1.9855531    3.4261495   -2.5892879 
C     3.9580644    2.8955604   -0.6786847 
H     4.7299825    2.0591659   -2.5177123 
H     4.4475751    3.7981600   -2.5916922 
C     3.3570936    1.6002400   -0.1084886 
H     4.9530001    3.0611803   -0.2483592 
H     3.3286451    3.7408414   -0.3695758 
H     4.0407960    0.7656858   -0.3038602 
H     3.2581548    1.6941436    0.9775085 
C     0.8516482   -2.8488026   -0.3248845 
H     1.1026653   -1.4237149   -1.9141544 
C     1.1825607   -4.0603948   -1.2082516 
H     1.2358081   -3.0222041    0.6882170 
H    -0.2305365   -2.7482495   -0.2443360 
C     2.6950251   -4.2422571   -1.3716204 
H     0.7308592   -4.9624926   -0.7790590 
H     0.7233121   -3.9140177   -2.1962941 
C     3.3423819   -2.9554150   -1.8940097 
H     3.1356192   -4.4967372   -0.3970729 
H     2.9088142   -5.0797472   -2.0459025 
C     3.0111265   -1.7560862   -0.9929349 
H     4.4305535   -3.0733385   -1.9609730 
H     2.9803536   -2.7506053   -2.9117172 
H     3.4255977   -1.9309833    0.0050614 
H     3.4939029   -0.8605082   -1.3862887 
C    -2.4040099   -1.5148607   -0.1644363 
C    -2.0368325   -1.1766781   -1.4514444 
H    -1.6581041   -1.9331075    0.5070289 
C    -3.0756357   -0.8920172   -2.5056335 
H    -1.0375500   -1.4127278   -1.8045219 
C    -4.4382859   -0.5506759   -1.8973888 
H    -2.7395015   -0.0941132   -3.1792339 
H    -3.1613798   -1.7903549   -3.1383588 
C    -4.8417608   -1.6354470   -0.8935122 
H    -4.3749974    0.4156783   -1.3847971 
H    -5.1880101   -0.4628821   -2.6916964 
C    -3.8341487   -1.7307816    0.2653751 
H    -5.8411448   -1.4369380   -0.4923401 
H    -4.8926306   -2.5996784   -1.4183658 
H    -4.0936889   -1.0171932    1.0524829 
H    -3.8774910   -2.7310566    0.7192662 
