13
0 1
C     0.0871239   -0.4398921   -0.2092570 
C    -0.6153746    0.7687151   -0.2092570 
C    -2.0102617    0.7573975   -0.2092570 
C    -2.7082128   -0.4498329   -0.2092570 
C    -1.9958047   -1.6515431   -0.2092570 
C    -0.6033839   -1.6550960   -0.2092570 
O     1.4611455   -0.4944951   -0.2092569 
H     1.8074379    0.4123981   -0.2092569 
H    -0.0732500    1.7128100   -0.2092571 
H    -2.5497209    1.7004148   -0.2092569 
H    -3.7936654   -0.4553570   -0.2092570 
H    -2.5285520   -2.5984256   -0.2092569 
H    -0.0398051   -2.5827733   -0.2092571 
