13
0 1
P    -1.9782288    0.6366902   -0.6275443 
C    -2.8927666    0.6671283   -2.2425342 
H    -3.9805782    0.6454257   -2.1019640 
H    -2.5956502   -0.1963070   -2.8465483 
H    -2.6245185    1.5722269   -2.7970134 
C    -2.8317865   -0.8111252    0.1603071 
H    -3.9242690   -0.7203055    0.1175518 
H    -2.5230531   -0.8912668    1.2076266 
H    -2.5320908   -1.7328043   -0.3489086 
C    -2.8780339    2.0091677    0.2397573 
H    -3.9669682    1.8850450    0.1907895 
H    -2.6091656    2.9674621   -0.2162937 
H    -2.5712377    2.0401084    1.2902498 
