11
0 1
Fe    0.0208945    0.0485623    0.5037632 
O     0.1412503    0.1080053    3.4598198 
C     0.0943979    0.0848313    2.3127028 
C    -0.0523736    0.0122243   -1.3051997 
O    -0.0990365   -0.0109106   -2.4523249 
C    -1.6612719    0.7096076    0.5583862 
O    -2.7326386    1.1306707    0.5930993 
C     1.4326526    1.1756437    0.4245038 
O     2.3317195    1.8936139    0.3742247 
C     0.2909025   -1.7392236    0.5285904 
O     0.4628243   -2.8778728    0.5444569 
