71
0 1
W    -0.0000704   -0.0179896   -0.1464571 
C     0.0001572    1.9553773   -0.6315452 
O     0.0004118    3.0680431   -0.9862887 
C     0.0000046    0.2711280    1.8251310 
O     0.0000031    0.4368700    2.9837559 
C     0.0000790   -2.0551673   -0.0567192 
O     0.0003697   -3.2203823   -0.1036376 
H     0.4227884   -0.2871374   -1.9847218 
H    -0.4229708   -0.2874042   -1.9853193 
P    -2.4989682    0.0540918   -0.0524691 
C    -3.3983603   -0.5350319   -1.5841745 
H    -4.4684411   -0.5268926   -1.3482655 
C    -3.3568784   -0.8655733    1.3557141 
H    -3.3718682   -0.1087297    2.1514432 
C    -3.1577124    1.8022876    0.1446670 
H    -2.7042525    2.3172729   -0.7114792 
C     3.1581075    1.8024815    0.1468093 
P     2.4994178    0.0545381   -0.0524717 
H     4.4684637   -0.5252300   -1.3497024 
H     2.7057909    2.3184029   -0.7093813 
C     3.3580988   -0.8666092    1.3543681 
H     3.3746208   -0.1101803    2.1504745 
C    -4.8055119   -1.2977410    1.0730852 
H    -5.2547287   -1.6741520    1.9998812 
H    -4.8356294   -2.1126149    0.3425116 
H    -5.4343104   -0.4860903    0.7028824 
C    -2.5605315   -2.0673175    1.8793449 
H    -3.0616481   -2.4750723    2.7656961 
H    -1.5427356   -1.7901115    2.1563452 
H    -2.5017522   -2.8639670    1.1318194 
C    -4.6805788    1.9799979    0.0658883 
H    -4.9164326    3.0489098   -0.0013089 
H    -5.1698965    1.5961464    0.9662640 
H    -5.1234954    1.4873339   -0.8047424 
C    -2.6180298    2.4652499    1.4195941 
H    -2.9066105    3.5225735    1.4327376 
H    -1.5299184    2.4053628    1.4766622 
H    -3.0330616    1.9973128    2.3190296 
C    -3.1561204    0.4023600   -2.7735900 
H    -3.6248055   -0.0119952   -3.6739094 
H    -2.0846722    0.5143663   -2.9755225 
H    -3.5709389    1.3999909   -2.6053246 
C    -2.9834087   -1.9709625   -1.9301146 
H    -3.1391226   -2.6600744   -1.0952750 
H    -1.9224949   -2.0132389   -2.1964453 
H    -3.5656713   -2.3331150   -2.7857258 
C     4.6811437    1.9794527    0.0699324 
H     5.1692004    1.5941070    0.9703649 
H     4.9177337    3.0483012    0.0043779 
H     5.1247226    1.4876103   -0.8008359 
C     2.6173049    2.4644858    1.4217542 
H     3.0301281    1.9947537    2.3212737 
C     2.9825608   -1.9675911   -1.9334707 
H     1.5290267    2.4060813    1.4769466 
H     2.9073940    3.5213740    1.4367865 
C     3.1561642    0.4071883   -2.7730256 
H     1.9217462   -2.0087937   -2.2003542 
H     3.5649692   -2.3289608   -2.7893070 
H     3.1373522   -2.6579574   -1.0994909 
C     3.3983227   -0.5324196   -1.5853269 
H     3.6223754   -0.0068747   -3.6747679 
H     3.5735754    1.4036177   -2.6039655 
H     2.0846030    0.5219760   -2.9729404 
C     4.8060612   -1.2998373    1.0699416 
H     5.2558328   -1.6774343    1.9959851 
H     5.4352308   -0.4884227    0.6998375 
H     4.8347408   -2.1141139    0.3386434 
C     2.5613151   -2.0679608    1.8781905 
H     2.5012859   -2.8642122    1.1303376 
H     1.5439634   -1.7901051    2.1561965 
H     3.0628955   -2.4765105    2.7639115 
