34
0 1
C     1.1429320    2.7663058   -0.0475066 
C     2.5323171    2.7546371   -0.0750047 
C     3.1853464    1.5241770   -0.0922652 
C     2.4265047    0.3604472   -0.0826434 
H     0.5846714    3.6962082   -0.0365491 
H     3.0819545    3.6896650   -0.0839433 
H     4.2693185    1.4701716   -0.1132117 
H     2.9174578   -0.6055124   -0.0918735 
N     0.4086376    1.6476226   -0.0435046 
C     1.0299946    0.4442400   -0.0612395 
C     0.1560002   -0.7447095   -0.0698607 
N    -1.1748631   -0.5103497    0.0095360 
C    -2.0300668   -1.5397510   -0.0261466 
C    -0.2424171   -3.1173213   -0.2116435 
C    -1.6094389   -2.8597162   -0.1332347 
H    -3.0818634   -1.2792461    0.0187160 
H    -2.3404936   -3.6603648   -0.1633814 
C     0.6467021   -2.0501374   -0.1807617 
H     1.7122444   -2.2314070   -0.2575359 
H     0.1269086   -4.1338123   -0.3046948 
Pd   -1.7825594    1.5851955   -0.0340650 
C    -3.8091696    1.3106286    0.0792878 
H    -3.9806260    0.5188305    0.8160987 
H    -4.1373417    1.0128260   -0.9180017 
H    -4.3201940    2.2197325    0.3987645 
C    -2.2401157    3.5772483   -0.1594263 
H    -2.9946742    3.7079648   -0.9348854 
H    -1.3202572    4.0859338   -0.4636637 
H    -2.5932995    3.9574080    0.8016337 
I    -1.6624462    1.3540156   -2.8063875 
C    -1.8211154    1.7914392    2.0301300 
H    -1.0240304    2.4881692    2.3033618 
H    -1.6320639    0.8029991    2.4586537 
H    -2.7889519    2.1734190    2.3571448 
