20
0 1
Ni    0.5386349   -0.1858724    0.1531411 
C     2.4917657   -0.2902064   -0.1281022 
C     1.9738028    0.9915869   -0.4310493 
C     1.2110836    1.6226212    0.5805363 
O    -0.2075334   -1.9944549   -0.0411786 
C    -1.3319396   -1.5052886    0.3231387 
O    -1.3697632   -0.2580962    0.6122679 
H     2.8678182   -0.9252321   -0.9253753 
H     2.8650789   -0.5136110    0.8715171 
H     1.9062342    1.3290359   -1.4641153 
H     1.4974642    1.5294140    1.6282739 
H     0.5887359    2.4787502    0.3354848 
C    -2.5692945   -2.3682247    0.4193538 
C    -3.7666691   -1.7231065   -0.2265746 
H    -2.3508474   -3.3453156   -0.0183651 
H    -2.7615249   -2.5115427    1.4936099 
C    -4.4887209   -2.2940987   -1.1894275 
H    -4.0176632   -0.7276888    0.1340661 
H    -5.3466103   -1.7920030   -1.6268625 
H    -4.2496479   -3.2836547   -1.5728274 
