66
0 1
C     0.2618801    3.7356754    0.1833249 
C    -0.0909538    2.3931953    0.3058789 
N     0.8305735    1.4237241    0.1028347 
C     2.1149725    1.7310288   -0.1740542 
C     2.5226156    3.0575111   -0.2903180 
C     1.5806567    4.0695078   -0.1234730 
C    -1.4567752    1.9217102    0.7092051 
P    -1.7646359    0.1611154    0.1427323 
C    -3.0185821   -0.4386799    1.4355572 
C    -2.2583895   -0.8218801    2.7184121 
Ru    0.3392037   -0.6084188    0.1176572 
C    -0.1269735   -2.3867391    0.2203874 
O    -0.4446307   -3.5085579    0.3300966 
C     3.0252097    0.5567589   -0.4042466 
N     2.5794707   -0.6571440    0.3457484 
C     3.0813827   -1.8911307   -0.3510852 
C     4.5951839   -1.9857307   -0.5606423 
O     0.9585948   -0.4465757   -1.9489929 
C     0.7232163   -1.4098182   -2.9340733 
C     3.0625063   -0.6601894    1.7616806 
C     2.7057434    0.5714482    2.5831718 
C    -2.6338684    0.3935860   -1.5234858 
C    -4.0054973    1.0822735   -1.4984643 
C    -1.6515324    1.2589552   -2.3427208 
C    -2.7601365   -0.9837899   -2.2013055 
C    -4.0594996    0.6337219    1.8143961 
C    -3.7395252   -1.6949149    0.9142770 
H     3.5601637    3.2870417   -0.5116260 
H     1.8724078    5.1111443   -0.2195430 
H    -0.4882554    4.5048261    0.3352304 
H    -2.2328128    2.6258979    0.3932359 
H    -4.3142869   -2.1386009    1.7369851 
H    -4.4409189   -1.4573449    0.1102834 
H    -3.0319644   -2.4470709    0.5540195 
H    -2.9956940   -1.1083527    3.4802456 
H    -1.5769443   -1.6557838    2.5470876 
H    -1.6672363    0.0123441    3.1099768 
H    -4.7569209    0.1971899    2.5406355 
H    -3.5929332    1.5001733    2.2935112 
H    -4.6427267    0.9837487    0.9622671 
H    -2.0070076    1.3011313   -3.3803754 
H    -1.6168433    2.2880820   -1.9664647 
H    -0.6375307    0.8333298   -2.3272788 
H    -2.9756062   -0.8401715   -3.2673889 
H    -1.8296634   -1.5480602   -2.1132282 
H    -3.5696592   -1.5788112   -1.7728007 
H    -4.3171774    1.2767845   -2.5331371 
H    -4.7756277    0.4583090   -1.0360554 
H    -3.9770226    2.0469119   -0.9796591 
H     2.9235548    0.2892936   -1.4626640 
H     4.0653927    0.8179990   -0.1687629 
H     2.6225972   -1.5504352    2.2186209 
H     4.1557480   -0.7800049    1.7566646 
H     2.5629786   -1.8995373   -1.3104105 
H     2.7246331   -2.7366535    0.2434539 
H     4.8100570   -2.9181252   -1.0930554 
H     4.9734372   -1.1635675   -1.1763960 
H     5.1591232   -2.0057834    0.3770175 
H     3.0561796    0.4145901    3.6090059 
H     3.1898019    1.4765751    2.2035814 
H     1.6238515    0.7206724    2.5999308 
H     0.2069063   -0.5471858    1.7306255 
H    -1.4853445    1.8725866    1.8059756 
H     1.5058339   -1.3550131   -3.7142265 
H     0.7244322   -2.4462895   -2.5440278 
H    -0.2435374   -1.2683751   -3.4536683 
