37
0 1
Ir   -0.0036453   -0.0067418    0.0546240 
P     2.3412316    0.2633260   -0.0827666 
C     2.8322725    1.6499560   -1.1514034 
C     3.1508965    0.5810022    1.5225953 
H     2.7397226    1.4975243    1.9544020 
H     3.0796627   -2.0414912   -0.0970847 
H     4.2325349    0.6920499    1.3971415 
H     2.8126116   -1.4065392   -1.7435421 
H     3.9236645    1.7279364   -1.1921940 
H     2.9451701   -0.2527656    2.1998134 
C     3.2265215   -1.1827248   -0.7571267 
H     2.4227823    1.4722103   -2.1484758 
H     4.2962318   -0.9681045   -0.8457994 
H     2.3889675    2.5675955   -0.7590075 
P    -2.3731653   -0.0356822   -0.0699620 
C    -3.1396700    1.0016926    1.2209589 
C    -3.0094090    0.6380218   -1.6352816 
H    -2.9455753   -2.3068093   -0.7136733 
H    -4.2946110   -1.5213106    0.1442505 
H    -2.8800339   -2.1267692    1.0512420 
C    -3.2080716   -1.6536880    0.1215551 
H    -4.1029305    0.6851097   -1.6068349 
H    -2.5824278    1.6361161   -1.7615996 
H    -4.2216153    1.0653282    1.0682275 
H    -2.6891213    1.9959193    1.1600952 
H    -2.6744520    0.0098950   -2.4628143 
H    -2.9377790    0.5752071    2.2074361 
C    -0.0445914    0.2683835    1.8872601 
O    -0.0651117    0.4624335    3.0248963 
Cl   -0.3329573    2.5059651   -0.2539036 
C     0.2355846   -2.0382203    0.3696479 
O     0.5870862   -2.4771706    1.4540805 
Cl    0.1349587   -0.2718086   -2.3358022 
C     0.0008664   -3.0153971   -0.7782268 
H    -0.1231146   -4.0205893   -0.3660997 
H     0.8774694   -2.9930708   -1.4340628 
H    -0.8449842   -2.7261204   -1.4026378 
