40
0 1
Ir   -1.3322508   -0.2895787    0.5558207 
Ir    1.3437275   -0.3334667    0.5171277 
S     0.0253943    1.6598319    0.1103500 
S    -0.0212378   -0.6083784   -1.4585668 
C     1.9607632   -2.1104922    0.6491041 
C     1.9990148   -0.0125805    2.2636601 
C    -0.0058767    3.0778378    1.3436549 
C     0.0112385   -2.2631385   -2.3498303 
C    -1.4494087    3.5930926    1.3255193 
C     0.4568016    2.7027051    2.7445194 
C     0.9537116    4.1005689    0.7152115 
C    -0.9557761   -2.0404439   -3.5232647 
C    -0.4419514   -3.4429995   -1.5013154 
C     1.4525918   -2.4225750   -2.8464756 
C    -1.9409416    0.2111038    2.2688799 
C    -1.9843704   -2.0381771    0.8722555 
O     2.4226022    0.0831867    3.3290090 
O     2.3590486   -3.1850861    0.7596834 
O    -2.3336667    0.4852229    3.3158963 
O    -2.4065982   -3.0693931    1.1584057 
H    -2.1391042    2.8858876    1.7918374 
H    -1.7931959    3.7770173    0.3039567 
H    -1.4903751    4.5364317    1.8831138 
H    -0.0834734    1.8448636    3.1486203 
H     0.2778059    3.5543121    3.4121449 
H     1.5276050    2.4914344    2.7568565 
H     1.9653344    3.6921886    0.6335238 
H     0.9856229    4.9910060    1.3544986 
H     0.6161872    4.3993978   -0.2808942 
H    -0.9876327   -2.9533977   -4.1299953 
H    -0.6249223   -1.2131008   -4.1568985 
H    -1.9662356   -1.8234787   -3.1644774 
H    -0.2606972   -4.3679477   -2.0621969 
H    -1.5121425   -3.3850999   -1.2946416 
H     0.1027830   -3.5145177   -0.5583206 
H     1.4929741   -3.2775335   -3.5319878 
H     2.1478411   -2.6060167   -2.0241217 
H     1.7897777   -1.5307360   -3.3817653 
I    -3.5920571    0.5716421   -0.7329288 
I     3.5957309    0.5803363   -0.7487530 
