53
0 1
Ru    0.1050782    0.0048858    0.0790500 
C     1.7039991    0.0161479   -1.4224545 
C     1.8557145    1.2051538   -0.6135552 
C     2.1034509   -0.6430420    0.7800671 
C     1.9330665   -1.1180783   -0.5536411 
C     2.0552976    0.8120244    0.7440171 
C     1.6590810   -0.0223587   -2.9205104 
H     1.1040997    0.8304638   -3.3214853 
H     1.1705232   -0.9328308   -3.2786737 
H     2.6707909    0.0048607   -3.3524411 
C     2.1675442   -2.5188317   -1.0319413 
H     1.4265494   -2.8447132   -1.7667759 
H     2.1717722   -3.2340019   -0.2065217 
H     3.1508686   -2.5733283   -1.5177693 
C     2.3679884   -1.4516098    2.0118669 
H     3.4119804   -1.3434997    2.3353429 
H     2.1757478   -2.5139961    1.8393250 
H     1.7170413   -1.1220047    2.8279467 
C     2.2690049    1.6961550    1.9331727 
H     3.3171153    1.6694557    2.2603657 
H     1.6393245    1.3682643    2.7666400 
H     2.0121622    2.7347621    1.7081814 
C     2.0005774    2.5904384   -1.1670900 
H     2.9715906    2.6755062   -1.6727911 
H     1.9763168    3.3468213   -0.3797008 
H     1.2307467    2.8344535   -1.9039925 
Cl   -0.8440132   -0.0106597    2.3471341 
P    -1.3149532   -1.7348690   -0.3235298 
P    -1.4120248    1.6583057   -0.3332398 
C    -1.6678385    2.2212981   -2.0722093 
H    -2.1164098    1.4018382   -2.6420167 
H    -0.7105426    2.4689957   -2.5367741 
H    -2.3263104    3.0961850   -2.1197771 
C    -0.9685144    3.2229315    0.5348718 
H    -0.9261571    2.9915414    1.6033324 
H    -1.7135164    4.0061865    0.3552801 
H     0.0111116    3.5782684    0.2146273 
C    -3.1683125    1.5602141    0.2192796 
H    -3.6132371    2.5608435    0.2052220 
H    -3.1922682    1.1606755    1.2356036 
H    -3.7477736    0.9119079   -0.4396814 
C    -0.8214134   -3.2469428    0.6079917 
H    -0.8214598   -2.9793417    1.6688418 
H     0.1842261   -3.5607551    0.3267698 
H    -1.5201752   -4.0728216    0.4333845 
C    -1.4850272   -2.3643877   -2.0501422 
H    -2.1052837   -3.2671934   -2.0890748 
H    -0.5027068   -2.5884013   -2.4723560 
H    -1.9454217   -1.5841629   -2.6637810 
C    -3.0920988   -1.7079913    0.1655734 
H    -3.1729629   -1.2869783    1.1701647 
H    -3.4906534   -2.7281034    0.1602369 
H    -3.6751799   -1.1025818   -0.5306771 
