51
0 1
C    -1.1088548   -0.5345090    2.2491295 
C     0.2703053   -0.9864760    2.2095937 
C     0.2613786    1.3484050    2.0819068 
C    -1.1170996    0.8852978    2.1481616 
C    -2.3079917   -1.4031776    2.4823912 
H    -2.1282834   -2.4299688    2.1542715 
H    -3.1888435   -1.0247340    1.9565591 
H    -2.5490889   -1.4407043    3.5533454 
C    -2.3168711    1.7796485    2.1531910 
H    -3.2351406    1.2104510    1.9862490 
H    -2.2383737    2.5307540    1.3614567 
H    -2.4080418    2.2974870    3.1174665 
C     0.6835065    2.7843418    2.0358416 
H     0.5543257    3.2701626    3.0129078 
H     0.0893948    3.3332693    1.2984329 
H     1.7362032    2.8756611    1.7530828 
C     2.5976619    0.2052282    2.2861562 
H     2.8780837    0.3385855    3.3395608 
H     3.0502037    1.0231754    1.7185052 
H     3.0383900   -0.7355194    1.9468478 
C     0.7462288   -2.3865397    2.4564436 
H     0.8851834   -2.5770143    3.5305269 
H     1.7021631   -2.5727243    1.9582425 
H     0.0280051   -3.1208863    2.0816443 
Ru   -0.1276847    0.0662323    0.3354018 
Cl   -1.0254713    1.8818849   -1.0566199 
P    -1.1142101   -1.3880551   -1.1029564 
C    -2.8114297   -0.9801814   -1.6860831 
H    -2.8003911    0.0426302   -2.0705027 
H    -3.4949097   -1.0157458   -0.8320685 
H    -3.1557799   -1.6794231   -2.4563357 
C    -1.3245346   -3.1651469   -0.6571095 
H    -1.7126155   -3.7358742   -1.5083827 
H    -2.0252179   -3.2615851    0.1761417 
H    -0.3602899   -3.5812626   -0.3527854 
C    -0.1478719   -1.5560853   -2.6991991 
H     0.4335841   -2.4827676   -2.6212568 
H    -0.8294671   -1.6674377   -3.5496251 
C     1.1052856    0.1922927    2.1496650 
P     1.5214087    0.0447842   -1.2134597 
H     3.0867186    1.5185416   -2.4155351 
H     3.0513408    1.8495341   -0.6632193 
H     1.6993346    2.3930345   -1.6831254 
C     0.7885778   -0.3551548   -2.8676807 
C     2.4390735    1.6019823   -1.5356660 
C     2.8963807   -1.1799909   -1.0927695 
H     0.2204678    0.5351198   -3.1554943 
H     1.5667436   -0.5407955   -3.6173511 
H     3.4854822   -0.9859718   -0.1929779 
H     3.5559514   -1.1242421   -1.9661554 
H     2.4796891   -2.1882162   -1.0162517 
