53
0 1
Pt   -0.0835858   -0.6187475   -0.8973370 
P    -1.5263120    0.3579958    0.6154154 
P     1.5286234   -0.1092931    0.6742778 
N    -2.4166241    1.7558217    0.1027036 
N    -2.8400539   -0.5483460    1.3347371 
N     2.3358827    1.4146516    0.4463876 
N     2.8213312   -1.2104673    1.0439234 
C    -1.6341508   -1.0878894   -2.2491743 
C     1.2071552   -1.5129502   -2.3044821 
C    -0.5867271    0.9664082    2.1155610 
C     0.6941854    0.1395620    2.3188430 
C    -2.0984722    2.4759545   -1.0541755 
C    -2.8613861    3.6253932   -1.0610040 
C    -3.6698725    3.6185950    0.1244201 
C    -3.3769751    2.4679530    0.8291267 
C    -4.0064232   -0.8824491    0.6445137 
C    -4.6709104   -1.8534495    1.3685491 
C    -3.8793451   -2.1499221    2.5256315 
C    -2.7557675   -1.3470291    2.4774871 
C     2.8883984    2.2872248    1.3907337 
C     3.4287405    3.3639148    0.7150078 
C     3.2083291    3.1547395   -0.6856046 
C     2.5379962    1.9566779   -0.8280095 
C     2.7422181   -2.5736657    0.7412243 
C     3.8246538   -3.2027294    1.3232712 
C     4.5951590   -2.2018977    2.0021397 
C     3.9583480   -0.9885863    1.8243014 
H    -2.2620018   -0.1991410   -2.4654173 
H    -2.2781644   -1.8609164   -1.7793850 
H    -1.2403775   -1.4840124   -3.2031684 
H     0.8876120   -2.5633003   -2.4629573 
H     2.2720641   -1.5049539   -2.0048654 
H     1.1031053   -0.9767676   -3.2692524 
H    -1.2310440    0.9762369    3.0147246 
H    -0.3313708    2.0171958    1.8746774 
H     1.3659940    0.6037265    3.0635637 
H     0.4645737   -0.8847518    2.6725645 
H    -1.3523874    2.0808695   -1.7477624 
H    -2.8530277    4.3892737   -1.8413472 
H    -4.4015052    4.3744552    0.4201403 
H    -3.7743219    2.0639142    1.7617514 
H    -4.2539473   -0.3786891   -0.2912309 
H    -5.6337468   -2.2954331    1.1042787 
H    -4.1169438   -2.8638576    3.3163982 
H    -1.9047059   -1.2716205    3.1559525 
H     2.8430193    2.0688673    2.4571902 
H     3.9258061    4.2207815    1.1784362 
H     3.5032501    3.8201427   -1.5011790 
H     2.1658067    1.4224312   -1.7037357 
H     1.9185369   -2.9443284    0.1287373 
H     4.0530008   -4.2689120    1.2534330 
H     5.5305284   -2.3549508    2.5460857 
H     4.2264412    0.0189183    2.1437348 
