66
0 1
Ru    0.3063407    0.0684436    0.0126834 
S    -1.7286267    0.3767403   -1.3320407 
P     2.1128713   -0.0408339    1.3827941 
P     1.4768174   -0.1170876   -2.0130136 
P     0.0300471    2.3960476    0.1915601 
P    -0.2129801   -2.1883011    0.1789149 
C    -3.2422252    0.1906173   -0.4500867 
C    -4.4420480    0.3113494   -1.1828314 
C    -5.6775193    0.1596811   -0.5620153 
C    -5.7609716   -0.1169558    0.8066876 
C    -4.5807027   -0.2354985    1.5407374 
C    -3.3384110   -0.0851039    0.9249042 
C     3.6010419    1.0179917    1.0702782 
C     3.0377914   -1.6209767    1.6735973 
C     1.7655864    0.3917735    3.1434727 
C     2.0894557    1.3972997   -2.8784479 
C     3.0439429   -1.1022629   -2.0580297 
C     0.5903409   -0.9207070   -3.4176305 
C    -1.4333268    2.8115435    1.2206946 
C     1.2617251    3.5407964    0.9766195 
C    -0.2989741    3.4204319   -1.3085668 
C    -0.5818281   -2.7601430    1.8931359 
C     0.9397454   -3.5300694   -0.3769375 
C    -1.7206847   -2.8000092   -0.6778021 
H    -0.5326535    0.1329277    1.4226338 
H    -4.3880447    0.5229999   -2.2475739 
H    -6.5854301    0.2569548   -1.1526947 
H    -6.7272458   -0.2361470    1.2881064 
H    -4.6224937   -0.4463698    2.6071783 
H    -2.4179486   -0.1645181    1.4968957 
H     4.0130999    0.7901534    0.0839216 
H     4.3729853    0.8344083    1.8259807 
H     3.3311310    2.0730685    1.0889598 
H     2.3647696   -2.4013319    2.0355751 
H     3.8273269   -1.4663986    2.4173565 
H     3.4954573   -1.9601658    0.7407643 
H     1.3044185    1.3807991    3.1939617 
H     2.6732581    0.3774772    3.7576309 
H     1.0428393   -0.3277441    3.5375420 
H     2.7020802    1.1390480   -3.7497270 
H     2.6835788    2.0019549   -2.1866038 
H     1.2331838    1.9890549   -3.2094715 
H     3.4298354   -1.1720067   -3.0812608 
H     2.8637447   -2.1091266   -1.6768441 
H     3.8041038   -0.6298979   -1.4304399 
H     1.1928558   -0.9035959   -4.3326799 
H    -0.3604956   -0.4068254   -3.5814053 
H     0.3640153   -1.9586456   -3.1567233 
H    -1.5865279    3.8958683    1.2628978 
H    -1.2799034    2.4188489    2.2293128 
H    -2.3154611    2.3283325    0.7964227 
H     0.8208433    4.5388943    1.0754709 
H     2.1551670    3.6189271    0.3505401 
H     1.5558102    3.1913678    1.9694424 
H     0.6365629    3.6041720   -1.8422190 
H    -0.7273543    4.3832673   -1.0095363 
H    -1.0011286    2.8926293   -1.9568593 
H    -0.8238325   -3.8285364    1.9160429 
H    -1.4338415   -2.1847462    2.2632282 
H     0.2683143   -2.5692465    2.5526852 
H     1.9270523   -3.4282946    0.0749198 
H     1.0479667   -3.4792248   -1.4642904 
H     0.5283809   -4.5116166   -0.1165368 
H    -1.6554952   -2.5785272   -1.7450109 
H    -2.6032014   -2.2921794   -0.2845396 
H    -1.8151314   -3.8807761   -0.5217311 
