23
0 1
Mo    0.0555474    0.6460039    0.4172704 
C     2.2307416    0.0634363    0.7253691 
C     2.1949390    1.4549915    1.0512366 
C     1.3442482    1.6442898    2.1633023 
C     0.8134529    0.3835476    2.5596172 
C     1.4092670   -0.6022731    1.6972078 
H     2.8346860   -0.3939892   -0.0436462 
H     2.6962877    2.2403958    0.5088648 
H     1.0920642    2.5971650    2.6002326 
H     0.1586063    0.2054471    3.3995292 
H     1.3178939   -1.6700873    1.8077306 
C    -0.7856025   -1.4306777    0.3246301 
C    -1.8441188   -0.5563984    0.7459090 
C    -1.2789352   -0.0472141   -1.4391652 
C    -0.3952802   -1.0802462   -1.0153319 
H    -2.3745823   -0.5772843    1.6858531 
H    -2.8925688    1.0583003   -0.3932087 
C    -2.1502796    0.2766226   -0.3751859 
H     0.3608835   -1.5576910   -1.6205211 
H    -0.4019038   -2.2616881    0.8928961 
H    -1.2495628    0.4512873   -2.3947272 
I     0.8950534    2.2778865   -1.7597808 
I    -1.3996769    2.9699505    1.1869900 
