25
0 1
Mo    1.0367832    1.0350518   -1.0371385 
C     3.0211877    1.0643692   -1.0568384 
C     1.0581585    3.0194353   -1.0666767 
C     1.0677460    1.0561860   -3.0215029 
O     1.0939605    1.0762739   -4.1882343 
O     4.1879556    1.0896047   -1.0760938 
O     1.0783998    4.1861825   -1.0920398 
N     1.0009723   -1.1085567   -0.9936592 
N    -1.1068605    0.9917738   -1.0031658 
N     0.9917085    0.9995644    1.1064445 
C     0.9995560    1.0124768    2.2685682 
C    -2.2689674    1.0005852   -1.0169174 
C     1.0136994   -2.2706766   -1.0023648 
C     1.0759056   -3.7211149   -1.0598865 
H     0.5848632   -4.0847884   -1.9688695 
H     0.5772715   -4.1629015   -0.1909731 
H     2.1202016   -4.0515195   -1.0706880 
C    -3.7193448    1.0582422   -1.0804083 
H    -4.0833313    1.9675384   -0.5901781 
H    -4.1616651    0.1896561   -0.5816771 
H    -4.0488501    1.0685106   -2.1249939 
C     1.0560159    1.0749065    3.7190385 
H     1.9644060    0.5833456    4.0834922 
H     0.1864459    0.5769112    4.1602532 
H     1.0672374    2.1192551    4.0492630 
