46
0 1
Mo    0.5060926    0.4981790   -0.5055615 
C     2.4930736    0.5661973   -0.4589940 
C     0.4582448    2.4852605   -0.5678430 
C     0.5727939    0.4561138   -2.4926672 
O     0.6349755    0.4295722   -3.6592193 
O     3.6595053    0.6293162   -0.4297896 
O     0.4281861    3.6518772   -0.6273493 
P     0.5839152   -2.0054870   -0.5976925 
P    -1.9977230    0.5846910   -0.5807253 
P     0.5917341    0.5680684    1.9985676 
C     0.7815553    2.2545356    2.7127531 
H     0.8797932    2.2257165    3.8036322 
H    -0.0851432    2.8626542    2.4393792 
H     1.6684200    2.7219565    2.2765870 
C    -0.7692728   -0.0893434    3.0641304 
H    -1.6953492    0.4535588    2.8557604 
H    -0.5288197    0.0190389    4.1275536 
H    -0.9343867   -1.1467581    2.8418351 
C     2.0384313   -0.2844068    2.7614354 
H     2.0581510   -0.1525829    3.8488980 
H     2.9562630    0.1209187    2.3275929 
H     2.0000238   -1.3529028    2.5311996 
C    -2.7065760    0.7906593   -2.2675249 
H    -3.7973708    0.8905089   -2.2411819 
H    -2.4327814   -0.0711083   -2.8824405 
H    -2.2674470    1.6808806   -2.7257029 
C    -3.0655770   -0.7820370    0.0608283 
H    -4.1286258   -0.5413414   -0.0506805 
H    -2.8482119   -0.9551713    1.1180261 
H    -2.8540345   -1.7037502   -0.4882435 
C    -2.7628839    2.0237690    0.2825931 
H    -3.8499455    2.0448821    0.1477127 
H    -2.3277371    2.9450658   -0.1133947 
H    -2.5359455    1.9759218    1.3513820 
C     2.2725987   -2.7131246   -0.7922871 
H     2.2474898   -3.8037209   -0.8946050 
H     2.8808140   -2.4409249    0.0747226 
H     2.7374240   -2.2719736   -1.6780452 
C    -0.0671168   -3.0772078    0.7615013 
H     0.0455413   -4.1395274    0.5181420 
H    -1.1252754   -2.8599866    0.9286910 
H     0.4763185   -2.8688479    1.6872911 
C    -0.2679235   -2.7673465   -2.0452959 
H    -0.1347853   -3.8546166   -2.0667109 
H     0.1369229   -2.3316229   -2.9624588 
H    -1.3366585   -2.5383698   -2.0066517 
