12
0 1
Rh   -0.1146267    0.3280385    0.4506752 
Rh   -2.5180785   -1.4815349    0.0248487 
Cl   -2.0956092    0.7109129   -0.8369188 
Cl   -1.6316293   -0.5867747    2.0600671 
C    -3.1290377   -2.0955711   -1.6060530 
C    -2.7511012   -3.1576763    0.7642536 
C     0.9788785    0.9973893   -0.8784524 
C     1.3593177   -0.0630345    1.4922927 
O    -3.4970736   -2.4755462   -2.6263772 
O    -2.8832588   -4.2018550    1.2259022 
O     1.6554080    1.4039763   -1.7138524 
O     2.2741427   -0.3191195    2.1391491 
