22
0 1
Ti   -0.1598284   -0.4767680    0.3097139 
C     1.7584763   -0.0072820   -0.3218901 
C    -1.1692736    1.2442035    0.8720570 
C    -1.1386983   -1.4033567   -1.1277539 
Cl   -0.2495280   -2.1829924    1.9044320 
Al   -1.4644272   -3.1446842   -0.0858776 
H    -2.1024445   -0.9160933   -1.3943618 
H    -0.5160774   -1.5988479   -2.0286951 
H    -2.1832725    0.9995357    1.2537914 
H    -0.5931045    1.7687752    1.6652577 
H    -1.2631625    1.9104988   -0.0135327 
H     2.3173937   -0.9235845   -0.6079114 
H     1.6864340    0.6660372   -1.2042703 
H     2.3014675    0.5172927    0.4943650 
C    -3.2961681   -3.3458633    0.6310138 
C    -0.2641801   -4.6339285   -0.5864724 
H     0.7785387   -4.2900199   -0.7517376 
H    -0.2334353   -5.4231102    0.1939757 
H    -0.5982238   -5.1216123   -1.5280466 
H    -3.3443028   -4.1069524    1.4379691 
H    -3.6877106   -2.3948741    1.0493875 
H    -4.0061294   -3.6686049   -0.1614134 
