
8

N -0.535020551 -0.861570006 0.000000000
H -1.142058700 -0.825740733 -0.809565000
H -1.142058700 -0.825740733 0.809565000
H 0.000000000 0.000000000 0.000000000
N 2.253621272 0.000000000 0.000000000
H 2.860659421 -0.035829274 -0.809565000
H 1.718600721 -0.861570006 0.000000000
H 2.860659421 -0.035829274 0.809565000
