
10

C -1.434944263 -1.236643950 0.000000000
O -0.995009531 0.001876693 0.000000000
O -0.752030700 -2.248465543 0.000000000
H -2.527660580 -1.276950582 0.000000000
H 0.000000000 0.000000000 0.000000000
C 2.687302778 -1.011821594 0.000000000
O 2.247368046 -2.250342236 0.000000000
O 2.004389215 0.000000000 0.000000000
H 3.780019095 -0.971514961 0.000000000
H 1.252358515 -2.248465543 0.000000000
