
12

C   -2.018649000   0.052883000   0.000000000
O   -1.452200000   1.143634000   0.000000000
N   -1.407770000  -1.142484000   0.000000000
H   -1.964596000  -1.977036000   0.000000000
H   -0.387244000  -1.207782000   0.000000000
H   -3.117061000  -0.013701000   0.000000000
C    2.018649000  -0.052883000   0.000000000
O    1.452200000  -1.143634000   0.000000000
N    1.407770000   1.142484000   0.000000000
H    1.964596000   1.977036000   0.000000000
H    0.387244000   1.207782000   0.000000000
H    3.117061000   0.013701000   0.000000000
