
10

C    0.000000000  -0.000140000   1.859161000
H   -0.888551000   0.513060000   1.494685000
H    0.888551000   0.513060000   1.494685000
H    0.000000000  -1.026339000   1.494868000
H    0.000000000   0.000089000   2.948284000
C    0.000000000   0.000140000  -1.859161000
H    0.000000000  -0.000089000  -2.948284000
H   -0.888551000  -0.513060000  -1.494685000
H    0.888551000  -0.513060000  -1.494685000
H    0.000000000   1.026339000  -1.494868000
