
12

C 0.000000000 -0.471925000 0.471925000
C 0.000000000 0.471925000 -0.471925000
H 0.922986000 -0.872422000 0.872422000
H 0.922986000 0.872422000 -0.872422000
H -0.924197000 -0.870464000 0.870464000
H -0.924197000 0.870464000 -0.870464000
C 3.346399800 0.471925000 0.471925000
C 3.346399800 -0.471925000 -0.471925000
H 2.423413800 0.872422000 0.872422000
H 2.423413800 -0.872422000 -0.872422000
H 4.270596800 0.870464000 0.870464000
H 4.270596800 -0.870464000 -0.870464000
