
12

C   -0.471925000  -0.471925000  -1.859111000
C    0.471925000   0.471925000  -1.859111000
H   -0.872422000  -0.872422000  -0.936125000
H    0.872422000   0.872422000  -0.936125000
H   -0.870464000  -0.870464000  -2.783308000
H    0.870464000   0.870464000  -2.783308000
C   -0.471925000   0.471925000   1.859111000
C    0.471925000  -0.471925000   1.859111000
H   -0.872422000   0.872422000   0.936125000
H    0.872422000  -0.872422000   0.936125000
H   -0.870464000   0.870464000   2.783308000
H    0.870464000  -0.870464000   2.783308000
