
12

C 0.000000000 -0.471925000 0.471925000
C 0.000000000 0.471925000 -0.471925000
H 0.922986000 -0.872422000 0.872422000
H 0.922986000 0.872422000 -0.872422000
H -0.924197000 -0.870464000 0.870464000
H -0.924197000 0.870464000 -0.870464000
C 4.461866400 0.471925000 0.471925000
C 4.461866400 -0.471925000 -0.471925000
H 3.538880400 0.872422000 0.872422000
H 3.538880400 -0.872422000 -0.872422000
H 5.386063400 0.870464000 0.870464000
H 5.386063400 -0.870464000 -0.870464000
