
24

C 0.629051507 -1.244058476 0.000000000
C 0.314072291 -0.622134657 1.206205000
C 0.314072291 -0.622134657 -1.206205000
C -0.314813547 0.621699240 1.206954000
C -0.627568995 1.244929310 0.000000000
C -0.314813547 0.621699240 -1.206954000
H 0.563930576 -1.102778154 -2.142315000
H -0.559388819 1.104085746 -2.143798000
H -1.116894124 2.209685917 0.000000000
H -0.559388819 1.104085746 2.143798000
H 0.563930576 -1.102778154 2.142315000
H 1.129721711 -2.202462660 0.000000000
C 5.018783046 1.244058476 0.000000000
C 5.333762262 0.622134657 -1.206205000
C 5.333762262 0.622134657 1.206205000
C 5.962648100 -0.621699240 -1.206954000
C 6.275403549 -1.244929310 0.000000000
C 5.962648100 -0.621699240 1.206954000
H 4.518112842 2.202462660 0.000000000
H 5.083903978 1.102778154 2.142315000
H 6.207223372 -1.104085746 2.143798000
H 6.764728677 -2.209685917 0.000000000
H 6.207223372 -1.104085746 -2.143798000
H 5.083903978 1.102778154 -2.142315000
