
28

C 0.000000000 0.000000000 0.000000000
C -0.044485647 -1.177978626 0.743160105
C -0.010824638 -2.411208517 0.095333145
C 0.064150773 -2.466933785 -1.295623602
C 0.100950904 -1.287437054 -2.038959973
C 0.067356799 -0.053500209 -1.391376263
H -0.013797739 0.956881587 0.503348328
H -0.091346970 -1.134458005 1.822398921
H -0.039754009 -3.325680275 0.672358669
H 0.085389531 -3.424849020 -1.798373823
H 0.146442780 -1.330172544 -3.119514770
H 0.100852832 0.862456237 -1.964945566
H 4.668951087 -0.578056849 3.494904751
C 4.744693458 -0.571969873 2.415753956
C 4.704239396 0.633650134 1.734349558
H 4.597120918 1.567038531 2.272036098
C 4.806989912 0.624347564 0.333339655
C 4.796822605 1.633662034 -0.673499279
H 4.713198685 2.698030593 -0.533251753
C 4.927409668 0.992808148 -1.884517470
N 5.033115298 -0.360086596 -1.675422891
C 4.948935388 -0.624347564 -0.333339655
C 4.997473187 -1.839842986 0.351754941
H 5.104292013 -2.780217935 -0.172940228
C 4.892701928 -1.796211682 1.733036170
H 4.924333504 -2.718261443 2.297634930
H 5.055061366 -1.056446212 -2.398978775
H 4.963626691 1.398036276 -2.881807744
