
30

N 0.067390759 1.213806097 -1.171192513
C -0.034440687 0.160916029 -2.035179690
H -0.037909102 0.307694674 -3.102311444
N -0.122286497 -1.014214485 -1.431659388
C -0.061278153 -0.690156063 -0.097738525
C -0.083866474 -1.480006435 1.065121981
N -0.207551291 -2.830167865 1.008466281
H 0.020236002 -3.318294510 1.858492777
H 0.100823981 -3.261839820 0.151791829
N -0.015107287 -0.872886238 2.254820437
C 0.095534438 0.468473589 2.286592142
H 0.148443656 0.902433537 3.277055537
N 0.150791629 1.330817541 1.268232413
C 0.061278153 0.690156063 0.097738525
H 0.213123816 2.178532043 -1.420082564
N 6.499988023 1.318912569 0.115169333
C 6.538304776 0.544134785 1.248235461
H 6.671467428 1.084216460 2.174491246
C 6.417654151 -0.802036026 1.213306349
C 6.470104777 -1.664227788 2.429380731
H 5.514321554 -2.161867438 2.585037720
H 7.230946845 -2.435033978 2.315487569
H 6.693659246 -1.070628980 3.313538183
C 6.223175393 -1.440326451 -0.080379664
O 6.062776084 -2.640081851 -0.255033817
N 6.234370318 -0.560837886 -1.168484485
H 6.058681426 -0.977998743 -2.072617562
C 6.319312707 0.814169728 -1.152798148
O 6.236644244 1.513854058 -2.149163262
H 6.538354117 2.322516737 0.179118562
