
10

C 0.000000000 -0.667578000 0.000000000
C 0.000000000 0.667578000 0.000000000
H -0.001526000 -1.232253000 -0.923621000
H -0.001526000 -1.232253000 0.923621000
H -0.001526000 1.232253000 0.923621000
H -0.001526000 1.232253000 -0.923621000
C 6.401167500 0.000000000 0.000000000
C 5.193904500 0.000000000 0.000000000
H 4.128016500 0.000000000 0.000000000
H 7.464593500 0.000000000 0.000000000
