
16

C   -0.739281000   0.515879000  -1.207108000
C   -1.426144000   0.396545000   0.000000000
C   -0.739281000   0.515879000   1.207108000
C    0.634227000   0.754640000   1.207073000
C    1.321043000   0.873757000   0.000000000
C    0.634227000   0.754640000  -1.207073000
H   -1.271950000   0.420632000  -2.143289000
H   -2.490220000   0.205238000   0.000000000
H   -1.271950000   0.420632000   2.143289000
H    1.166800000   0.847488000   2.143695000
H    2.386359000   1.059631000   0.000000000
H    1.166800000   0.847488000  -2.143695000
N    0.180393000  -2.949123000   0.000000000
H    0.759549000  -3.145948000  -0.806073000
H    0.759549000  -3.145948000   0.806073000
H    0.044417000  -1.944940000   0.000000000
