
15

C -0.023100946 0.696978594 1.207702000
C -0.046160335 1.393808033 0.000000000
C -0.023100946 0.696978594 -1.207702000
C 0.023085816 -0.696895106 -1.207865000
C 0.046190594 -1.393975010 0.000000000
C 0.023085816 -0.696895106 1.207865000
H -0.038624622 1.237369182 2.144051000
H -0.079148681 2.474493071 0.000000000
H -0.038624622 1.237369182 -2.144051000
H 0.042839694 -1.237142510 -2.144256000
H 0.083401415 -2.474593580 0.000000000
H 0.042839694 -1.237142510 2.144256000
N 5.005921565 0.304536859 0.000000000
C 3.849430817 0.145763954 0.000000000
H 2.791547527 0.000000000 0.000000000
