
24

C -1.080615000 0.000000000 0.000000000
C -1.779254000 -1.206008000 0.000000000
C -3.173171000 -1.207177000 0.000000000
C -3.870155000 0.000000000 0.000000000
C -3.173171000 1.207177000 0.000000000
C -1.779254000 1.206008000 0.000000000
H 0.000000000 0.000000000 0.000000000
H -1.236002000 -2.141639000 0.000000000
H -3.714575000 -2.143566000 0.000000000
H -4.951730000 0.000000000 0.000000000
H -3.714575000 2.143566000 0.000000000
H -1.236002000 2.141639000 0.000000000
C 4.865461333 0.000000000 -1.394063000
C 4.865937333 1.207238000 -0.697047000
C 4.865937333 1.207238000 0.697047000
C 4.865461333 0.000000000 1.394063000
C 4.865937333 -1.207238000 0.697047000
C 4.865937333 -1.207238000 -0.697047000
H 4.861631333 0.000000000 -2.475399000
H 4.864985333 2.143565000 -1.238232000
H 4.864985333 2.143565000 1.238232000
H 4.861631333 0.000000000 2.475399000
H 4.864985333 -2.143565000 1.238232000
H 4.864985333 -2.143565000 -1.238232000
