6
0 1
C       -0.260188149      0.332668312     -2.170036204
N       -0.260188149      0.332668312     -3.328257245
C       -0.260188150      0.332668312     -0.738027917
H        0.772519608      0.332668312     -0.354238245
H       -0.776542027     -0.561682837     -0.354238249
H       -0.776542027      1.227019460     -0.354238249
