8
0 1
C       -0.215688960      0.000000000     -0.104011703
H       -0.215688960      1.019690000     -0.503267703
H        0.667389040     -0.509845000     -0.503267703
H       -1.098766960     -0.509845000     -0.503267703
C       -0.215688960      0.000000000      1.425976297
H       -1.098766960      0.509845000      1.825232297
H       -0.215688960     -1.019690000      1.825232297
H        0.667389040      0.509845000      1.825232297
