6
0 1
C       -0.647066880      0.000000000     -1.089499211
C       -0.647066880      0.000000000      0.240658789
H       -0.647066880      0.923341000     -1.662449211
H       -0.647066880     -0.923341000     -1.662449211
H       -0.647066880      0.923341000      0.813608789
H       -0.647066880     -0.923341000      0.813608789
