11
0 1
Fe      -2.188426023      3.120429605     -0.859119279
C       -2.670424599      4.020716739     -2.377270577
C       -0.661772315      2.602324706     -1.651061484
C       -2.670424599      1.368774305     -0.642315225
C       -3.715079731      3.638534505     -0.067177073
C       -1.224428871      3.971797772      0.442227966
O       -2.969241210      4.578852725     -3.318453496
O        0.304667402      2.274341254     -2.152396133
O       -2.969241210      0.282829808     -0.507906835
O       -4.681519448      3.966517956      0.434157576
O       -0.626795649      4.499606283      1.249002495
