11
0 1
C       -0.357501132      0.161913563     -2.948258344
H        0.526069868     -0.466943935     -3.107283804
H       -1.241072132     -0.466943935     -3.107283804
C       -0.357501132      0.768573249     -1.541836958
H        0.519138868      1.418769420     -1.425052454
H       -1.234141132      1.418769420     -1.425052454
H       -0.357501132      0.937279287     -3.721452362
C       -0.357501132     -0.289603356     -0.434443910
H       -1.241072132     -0.934494568     -0.504201882
H        0.526069868     -0.934494568     -0.504201882
H       -0.357501132      0.168224615      0.560249281
