19
0 1
Cr               -0.093310    0.000000    0.000000
 C                1.619533   -0.057524    1.419679
 C                1.633309   -1.261446    0.670239
 C                1.619533   -1.200716   -0.759657
 C                1.633309    0.050279   -1.427564
 C                1.619533    1.258240   -0.660022
 C                1.633309    1.211167    0.757325
 H                1.571208   -0.097887    2.511712
 H                1.591468   -2.227461    1.179707
 H                1.571208   -2.126263   -1.340629
 H                1.591468    0.092074   -2.518891
 H                1.571208    2.224150   -1.171083
 H                1.591468    2.135386    1.339184
 C               -1.181861    0.369711    1.447102
 C               -1.181861    1.068371   -1.043730
 C               -1.181861   -1.438083   -0.403371
 O               -1.857697    0.606718    2.379487
 O               -1.857697    1.757337   -1.715176
 O               -1.857697   -2.364055   -0.664310
