30   

H       -0.5220000000   -2.8130000000   -2.8020000000
C       -0.4610000000   -2.9670000000   -1.7520000000
C       -0.3920000000   -3.1420000000   -0.5590000000
C       -0.3130000000   -3.3390000000    0.7870000000
N       -0.2460000000   -3.5080000000    1.9420000000
H        2.9550000000    0.7240000000   -2.6980000000
C        2.5350000000    1.4220000000   -2.0160000000
C        2.0570000000    2.2150000000   -1.2410000000
C        1.5180000000    3.1100000000   -0.3660000000
N        1.0560000000    3.8780000000    0.3840000000
H       -0.5780000000    1.4180000000    3.7160000000
C       -1.2870000000    1.3900000000    2.9240000000
C       -2.0920000000    1.3580000000    2.0240000000
C       -3.0000000000    1.3220000000    1.0100000000
N       -3.7790000000    1.2910000000    0.1390000000
H       -2.6160000000   -1.7620000000    2.5200000000
C       -2.7220000000   -1.6770000000    1.4660000000
C       -2.8430000000   -1.5800000000    0.2680000000
C       -2.9790000000   -1.4710000000   -1.0830000000
N       -3.0960000000   -1.3780000000   -2.2420000000
H        2.3760000000   -2.1380000000    2.4400000000
C        2.3780000000   -2.1520000000    1.3780000000
C        2.3790000000   -2.1680000000    0.1700000000
C        2.3800000000   -2.1860000000   -1.1920000000
N        2.3820000000   -2.2010000000   -2.3610000000
H       -0.3920000000   -0.0050000000   -0.7010000000
C        0.2610000000    0.2270000000    0.1050000000
C        1.0030000000    0.4910000000    1.0210000000
C        1.8390000000    0.7880000000    2.0550000000
N        2.5560000000    1.0440000000    2.9410000000
