14
1 2
C         -1.60667       -0.92017        0.00000
C         -0.02364       -0.78138        0.00000
C          0.02364        0.78138        0.00000
C          1.60667        0.92017        0.00000
H         -1.64288       -2.02223        0.00000
H         -2.05732       -0.52179        0.90129
H         -2.05732       -0.52179       -0.90129
H          0.40216       -1.21100       -0.89958
H          0.40216       -1.21100        0.89958
H         -0.40216        1.21100       -0.89958
H         -0.40216        1.21100        0.89958
H          2.05732        0.52179       -0.90129
H          1.64288        2.02223        0.00000
H          2.05732        0.52179        0.90129
