12
0 1
C          1.20827        0.69760        0.00000
C          1.20827       -0.69760        0.00000
C          0.00000       -1.39519        0.00000
C         -1.20827       -0.69760        0.00000
C         -1.20827        0.69760        0.00000
C          0.00000        1.39519        0.00000
H          2.14522        1.23855        0.00000
H          2.14522       -1.23855        0.00000
H          0.00000       -2.47709        0.00000
H         -2.14522       -1.23855        0.00000
H         -2.14522        1.23855        0.00000
H          0.00000        2.47709        0.00000
