7
0 2
C         -0.55537       -0.28560        0.00000
C          0.80048        0.33374        0.00000
H         -1.34546        0.47415        0.00000
H         -0.71188       -0.90430        0.88313
H         -0.71188       -0.90430       -0.88313
H          1.26205        0.64316        0.92293
H          1.26205        0.64316       -0.92293
