6
1 2
O          1.00692       -0.10030        0.00000
O         -1.00692        0.10030        0.00000
H          1.17077        0.47145        0.77499
H          1.17077        0.47145       -0.77499
H         -1.17077       -0.47145        0.77499
H         -1.17077       -0.47145       -0.77499
