6
0 1
N          0.00000        0.00000        0.87038
Cl         0.00000        0.00000       -1.42273
F          0.00000        0.00000       -3.12215
H         -0.47329       -0.81976        1.22483
H         -0.47329        0.81976        1.22483
H          0.94658        0.00000        1.22483
