10
0 1
C         -1.88890       -0.17969        0.00000
C          1.88890        0.17969        0.00000
O         -1.17044       -1.16659        0.00000
O         -1.49328        1.07369        0.00000
O          1.49328       -1.07369        0.00000
O          1.17044        1.16659        0.00000
H         -0.49883        1.10720        0.00000
H         -2.97949       -0.25883        0.00000
H          2.97949        0.25883        0.00000
H          0.49883       -1.10720        0.00000
