12
0 1
C         -0.47193       -0.47193       -1.85911
C          0.47193        0.47193       -1.85911
C         -0.47193        0.47193        1.85911
C          0.47193       -0.47193        1.85911
H         -0.87046       -0.87046       -2.78331
H          0.87046        0.87046       -2.78331
H         -0.87242       -0.87242       -0.93613
H          0.87242        0.87242       -0.93613
H         -0.87242        0.87242        0.93613
H          0.87242       -0.87242        0.93613
H         -0.87046        0.87046        2.78331
H          0.87046       -0.87046        2.78331
