17
0 1
C          1.39322        0.03629       -1.09377
C          0.72804       -1.18840       -1.09379
C         -0.66518       -1.22471       -1.09377
C         -1.39320       -0.03630       -1.09379
C         -0.72804        1.18842       -1.09377
C          0.66517        1.22470       -1.09379
C          0.00000        0.00000        2.62213
H          1.29296       -2.11054       -1.09223
H         -1.18132       -2.17501       -1.09221
H         -2.47426       -0.06446       -1.09223
H         -1.29295        2.11056       -1.09221
H          1.18130        2.17501       -1.09223
H          2.47427        0.06445       -1.09221
H          0.58688        0.83817        2.98589
H         -1.01932        0.08916        2.98589
H          0.00000        0.00000        1.53618
H          0.43244       -0.92734        2.98589
