20
0 1
C         -1.24681       -1.17150       -0.69614
C         -1.24681       -1.17150        0.69614
C          0.73191       -2.26491        0.69673
C          0.73191       -2.26491       -0.69673
C         -0.33762        2.08038        1.13005
C          0.85441        1.35966        1.13063
C          0.85441        1.35966       -1.13063
C         -0.33762        2.08038       -1.13005
H          1.54918       -2.71251        1.24756
H          1.54918       -2.71251       -1.24756
H         -2.06306       -0.72200       -1.24728
H         -2.06306       -0.72200        1.24728
H         -0.81000        2.36462        2.06186
H          1.32124        1.06738        2.06240
H          1.32124        1.06738       -2.06240
H         -0.81000        2.36462       -2.06186
N          1.47056        0.99108        0.00000
N         -0.25857       -1.72326        1.41448
N         -0.25857       -1.72326       -1.41448
N         -0.95193        2.45320        0.00000
