10
0 1
C         -1.13065        0.69614        0.00000
C         -1.13065       -0.69614        0.00000
C          1.13065       -0.69614        0.00000
C          1.13065        0.69614        0.00000
N          0.00000       -1.41448        0.00000
N          0.00000        1.41448        0.00000
H         -2.06248        1.24728        0.00000
H         -2.06248       -1.24728        0.00000
H          2.06248       -1.24728        0.00000
H          2.06248        1.24728        0.00000
