10
0 1
C          0.00000       -0.66758       -1.76776
C          0.00000        0.66758       -1.76776
C          0.00000        0.00000        3.25741
C          0.00000        0.00000        2.05014
H         -0.92362        1.23225       -1.76928
H          0.92362        1.23225       -1.76928
H          0.92362       -1.23225       -1.76928
H         -0.92362       -1.23225       -1.76928
H          0.00000        0.00000        0.98426
H          0.00000        0.00000        4.32083
