6
0 1
C         -0.66758        0.00000        0.00000
C          0.66758        0.00000        0.00000
H          1.23225        0.92362        0.00000
H          1.23225       -0.92362        0.00000
H         -1.23225       -0.92362        0.00000
H         -1.23225        0.92362        0.00000
