15
0 1
C          0.76502       -0.57334       -1.20754
C          0.46281        0.78759       -1.20790
C          0.31207        1.46841        0.00000
C          0.46281        0.78759        1.20790
C          0.76502       -0.57334        1.20754
C          0.91656       -1.25341        0.00000
H          0.88108       -1.10105       -2.14415
H          0.34180        1.31476       -2.14406
H          0.07627        2.52369        0.00000
H          0.34180        1.31476        2.14406
H          0.88108       -1.10105        2.14415
H          1.15342       -2.30862        0.00000
H         -2.63850       -1.18253        0.00000
H         -1.91710        0.13446        0.00000
O         -2.80412       -0.23793        0.00000
