16
0 1
C         -0.80894        0.73922       -1.20711
C         -1.49580        0.61989        0.00000
C         -0.80894        0.73922        1.20711
C          0.56457        0.97798        1.20707
C          1.25139        1.09710        0.00000
C          0.56457        0.97798       -1.20707
H         -1.34161        0.64398       -2.14329
H         -2.55988        0.42858        0.00000
H         -1.34161        0.64398        2.14329
H          1.09714        1.07083        2.14370
H          2.31670        1.28298        0.00000
H          1.09714        1.07083       -2.14370
H          0.68989       -2.92260       -0.80607
H          0.68989       -2.92260        0.80607
H         -0.02524       -1.72160        0.00000
N          0.11073       -2.72578        0.00000
