24
0 1
C          0.00000        0.00000        1.05873
C          0.00000       -1.20601        1.75737
C          0.00000       -1.20718        3.15128
C          0.00000        0.00000        3.84827
C          0.00000        1.20718        3.15128
C          0.00000        1.20601        1.75737
C         -1.39406        0.00000       -2.45446
C         -0.69705        1.20724       -2.45494
C          0.69705        1.20724       -2.45494
C          1.39406        0.00000       -2.45446
C          0.69705       -1.20724       -2.45494
C         -0.69705       -1.20724       -2.45494
H          0.00000        0.00000       -0.02189
H          0.00000       -2.14164        1.21411
H          0.00000       -2.14357        3.69269
H          0.00000        0.00000        4.92984
H          0.00000        2.14357        3.69269
H          0.00000        2.14164        1.21411
H         -2.47540        0.00000       -2.45063
H         -1.23823        2.14357       -2.45398
H          1.23823        2.14357       -2.45398
H          2.47540        0.00000       -2.45063
H          1.23823       -2.14357       -2.45398
H         -1.23823       -2.14357       -2.45398
