16
0 1
C          1.47460       -1.93893        0.00000
C          0.10083       -2.03106        0.00000
C         -0.40252       -0.69669        0.00000
C          0.72664        0.16998        0.00000
C          0.60111        1.56216        0.00000
C         -0.68194        2.08703        0.00000
C         -1.81474        1.24787        0.00000
C         -1.68911       -0.13133        0.00000
H          2.79723       -0.28550        0.00000
H          2.22171       -2.71493        0.00000
H         -0.46787       -2.94522        0.00000
H          1.47184        2.20434        0.00000
H         -0.81705        3.16018        0.00000
H         -2.79989        1.69433        0.00000
H         -2.56731       -0.76390        0.00000
N          1.84647       -0.61830        0.00000
