12
0 1
C          1.20740        0.69709        0.00000
C          1.20740       -0.69709        0.00000
C          0.00000       -1.39419        0.00000
C         -1.20740       -0.69709        0.00000
C         -1.20740        0.69709        0.00000
C          0.00000        1.39419        0.00000
H          2.14388        1.23777        0.00000
H          2.14388       -1.23777        0.00000
H          0.00000       -2.47554        0.00000
H         -2.14388       -1.23777        0.00000
H         -2.14388        1.23777        0.00000
H          0.00000        2.47554        0.00000
