26
0 1
C         -2.04862        0.94853       -0.14412
C         -1.50459        0.03277        0.75922
C         -2.18909       -1.14482        1.05260
C         -3.41583       -1.41846        0.45382
C         -3.95589       -0.49917       -0.44487
C         -3.27856        0.67765       -0.74538
C          1.99546        0.97119        0.11378
C          1.54889        0.25437       -0.99318
C          2.20022       -0.92229       -1.34858
C          3.29006       -1.38188       -0.61063
C          3.72817       -0.65501        0.49288
C          3.08097        0.52303        0.86028
H         -3.68468        1.39812       -1.44153
H         -0.56532        2.14934       -0.04223
H          1.74277        2.53344        1.19394
H         -0.55216        0.24134        1.22849
H         -1.75663       -1.84746        1.75207
H         -3.94398       -2.33270        0.68403
H         -4.90859       -0.69761       -0.91690
H          0.70304        0.62148       -1.55763
H          1.85063       -1.48029       -2.20595
H          3.79151       -2.29647       -0.89244
H          4.57225       -1.00033        1.07350
H          3.41837        1.08772        1.72118
O         -1.43002        2.11454       -0.47889
O          1.31160        2.12296        0.43654
