16
symmetry c1
C       -4.540266409      1.099136123      1.089105516
C       -3.501586707      1.754177343      1.734133119
C       -4.588161986      1.050141817     -0.297707847
H       -3.461458173      1.794632591      2.816939905
H       -5.402135871      0.537090995     -0.796783690
C       -2.499112988      2.367288987      0.982687491
C       -3.587177501      1.662384825     -1.042462678
H       -3.620609737      1.626732370     -2.126104382
C       -2.544217041      2.319709017     -0.410815195
H       -1.758716421      2.800277119     -0.981516878
H       -5.318866689      0.622923764      1.675600373
O       -1.467314549      3.016699675      1.569999367
H       -1.549675718      2.984531293      2.543299053
O       -1.634321459      2.914868132      3.359339757
H       -0.997098657      2.354649186      3.804592392
H       -1.702978349      3.728252595      3.860794882
