12

O   -0.636134928  -0.023282411   0.280599321
H    0.308097372  -0.047078748   0.076463691
C   -1.152065407  -1.311287783   0.015259549
H   -2.209945023  -1.296265392   0.263955863
H   -1.056610240  -1.592670859  -1.036190606
H   -0.674835746  -2.086272765   0.620511449
O    2.338001155  -0.127154637  -0.018042530
H    2.806790465   0.487229887  -0.587708484
C    2.846835081   0.029864301   1.303674794
H    2.293266001  -0.658332126   1.933805674
H    3.905831183  -0.220574598   1.360397935
H    2.694395443   1.040558354   1.681567340
