9

O   -0.786562022   0.045168441  -0.007189119
H    0.177706774   0.012695896  -0.006835389
C   -1.247990941  -1.290283536   0.001083621
H   -2.334277443  -1.258897100   0.000221200
H   -0.925965746  -1.849768096  -0.880445382
H   -0.927027831  -1.838462882   0.890076520
O    1.963534655  -0.045910300  -0.004918426
H    2.402738794   0.342241899  -0.764791108
H    2.401418949   0.356693979   0.748171106
