9

O   -0.786562022   0.045168441  -0.007189119
H    0.177706774   0.012695896  -0.006835389
C   -1.247990941  -1.290283536   0.001083621
H   -2.334277443  -1.258897100   0.000221200
H   -0.925965746  -1.849768096  -0.880445382
H   -0.927027831  -1.838462882   0.890076520
O    2.161848924  -0.052418455  -0.004705549
H    2.601053063   0.335733744  -0.764578231
H    2.599733218   0.350185824   0.748383983
