9

O   -0.786562022   0.045168441  -0.007189119
H    0.177706774   0.012695896  -0.006835389
C   -1.247990941  -1.290283536   0.001083621
H   -2.334277443  -1.258897100   0.000221200
H   -0.925965746  -1.849768096  -0.880445382
H   -0.927027831  -1.838462882   0.890076520
O    2.261155978  -0.055677453  -0.004598950
H    2.700360117   0.332474746  -0.764471632
H    2.699040272   0.346926826   0.748490582
