13

N   -0.893451216  -0.043844322  -0.042997455
H    0.096948261  -0.256059448  -0.071069928
H   -1.368438791  -0.933390652   0.033837726
C   -1.175782475   0.757907695   1.145237192
H   -2.241626604   0.972216010   1.195024643
H   -0.880789552   0.304246738   2.097209096
H   -0.663005722   1.714329397   1.060809164
O    2.572136897  -0.020045968   0.040830815
H    2.854163016   0.349902797  -0.799033265
C    2.958050745   0.891538293   1.060266977
H    2.634867696   0.461905620   2.003333521
H    4.039105983   1.030621762   1.099306944
H    2.479576183   1.865136138   0.945090442
