18

C   -0.849316722  -0.339498757   2.491716638
H    0.184343962  -0.011047317   2.416185420
H   -0.882497908  -1.342051398   2.912703097
H   -1.390802629   0.316878284   3.168428969
C   -1.564031922  -0.353323105   1.159475446
O   -2.749526378  -0.651537758   1.056760868
N   -0.801653517  -0.027354614   0.088341667
H    0.161187556   0.240360347   0.218713639
C   -1.385349861  -0.002351490  -1.234136826
H   -1.891617202  -0.942801228  -1.440096314
H   -2.119972302   0.796211805  -1.330879524
H   -0.594645935   0.149570655  -1.963127724
O    2.261987359   0.252754368   0.468576618
H    2.982842167   0.880053992   0.558991430
C    2.781071519  -1.052611286   0.702458408
H    1.948500016  -1.741398976   0.596881839
H    3.547210278  -1.321604033  -0.024422366
H    3.189168562  -1.154060484   1.708092898
