19

C   -0.778573337  -0.463320642   2.490387679
H    0.224744624  -0.050952937   2.413483550
H   -0.722479943  -1.487091796   2.854584636
H   -1.351907573   0.110816926   3.213683648
C   -1.520502592  -0.456627685   1.172325000
O   -2.700835214  -0.783585732   1.089596816
N   -0.791953608  -0.069640484   0.100589371
H    0.194111652   0.145707904   0.202924639
C   -1.397798343  -0.056082448  -1.211317928
H   -2.314928013   0.528891210  -1.199709914
H   -0.698804216   0.387261304  -1.915366213
H   -1.652982322  -1.061528948  -1.545434954
N    2.770767553   0.282932442   0.303252518
H    3.174433878   0.822851970   1.058452608
H    3.188771426   0.650313691  -0.542393403
C    3.143070392  -1.128250372   0.457005267
H    2.716782992  -1.699282957  -0.364370183
H    4.218469034  -1.314939821   0.482788664
H    2.708597819  -1.512657384   1.376841268
