19

C   -0.778573337  -0.463320642   2.490387679
H    0.224744624  -0.050952937   2.413483550
H   -0.722479943  -1.487091796   2.854584636
H   -1.351907573   0.110816926   3.213683648
C   -1.520502592  -0.456627685   1.172325000
O   -2.700835214  -0.783585732   1.089596816
N   -0.791953608  -0.069640484   0.100589371
H    0.194111652   0.145707904   0.202924639
C   -1.397798343  -0.056082448  -1.211317928
H   -2.314928013   0.528891210  -1.199709914
H   -0.698804216   0.387261304  -1.915366213
H   -1.652982322  -1.061528948  -1.545434954
N    3.286078776   0.310376287   0.323317317
H    3.689745101   0.850295815   1.078517407
H    3.704082649   0.677757536  -0.522328604
C    3.658381615  -1.100806527   0.477070066
H    3.232094215  -1.671839112  -0.344305384
H    4.733780257  -1.287495976   0.502853463
H    3.223909042  -1.485213539   1.396906067
