19

C   -0.778573337  -0.463320642   2.490387679
H    0.224744624  -0.050952937   2.413483550
H   -0.722479943  -1.487091796   2.854584636
H   -1.351907573   0.110816926   3.213683648
C   -1.520502592  -0.456627685   1.172325000
O   -2.700835214  -0.783585732   1.089596816
N   -0.791953608  -0.069640484   0.100589371
H    0.194111652   0.145707904   0.202924639
C   -1.397798343  -0.056082448  -1.211317928
H   -2.314928013   0.528891210  -1.199709914
H   -0.698804216   0.387261304  -1.915366213
H   -1.652982322  -1.061528948  -1.545434954
N    4.316701223   0.365263976   0.363446914
H    4.720367548   0.905183504   1.118647004
H    4.734705096   0.732645225  -0.482199007
C    4.689004062  -1.045918838   0.517199663
H    4.262716662  -1.616951423  -0.304175787
H    5.764402704  -1.232608287   0.542983060
H    4.254531489  -1.430325850   1.437035664
