18

N   -0.050873655  -0.980081266   0.033962193
H   -0.053222049  -1.990693742   0.049821668
C   -1.308813157  -0.361876381   0.004025957
O   -2.327219998  -1.032554922  -0.005828865
C   -1.236818490   1.088048291  -0.012224403
H   -2.152738973   1.651460442  -0.054774427
C   -0.035194332   1.697835844   0.033704832
H    0.070366356   2.772475747   0.031882239
N    1.134529129   0.990282506   0.091844614
H    2.023720319   1.456772182   0.155692772
C    1.193185991  -0.391832869   0.115775123
O    2.236397967  -1.011188263   0.194185623
C    0.730496154   0.030766421   3.565707521
H    1.247613891  -0.840221475   3.188480926
H    1.336107159   0.817760465   3.993021855
C   -0.598280347   0.131356869   3.516460592
H   -1.210283234  -0.656122721   3.099559874
H   -1.110105338   1.002426460   3.900460357
