17

N    1.381382191  -0.000233477   0.131463739
C    0.679350788  -1.140239457   0.092079660
H    1.258719604  -2.054962232   0.125883611
C   -0.709722319  -1.193114069   0.006664265
H   -1.214087679  -2.148561633  -0.025308510
C   -1.421613574   0.000133427  -0.040816901
H   -2.500696146   0.000257571  -0.109169733
C   -0.709401197   1.193175380   0.006521983
H   -1.213511626   2.148747839  -0.025528309
C    0.679651666   1.139956229   0.091893028
H    1.259260730   2.054510898   0.125502478
C    0.017711944   0.666430173   3.276967210
H    0.928185947   1.225915892   3.117852367
H   -0.891835554   1.228834400   3.433927714
C    0.018044628  -0.666257127   3.277099449
H    0.928780319  -1.225339611   3.118089016
H   -0.891243466  -1.229081898   3.434188600
