17

N    1.381382191  -0.000233477   0.131463739
C    0.679350788  -1.140239457   0.092079660
H    1.258719604  -2.054962232   0.125883611
C   -0.709722319  -1.193114069   0.006664265
H   -1.214087679  -2.148561633  -0.025308510
C   -1.421613574   0.000133427  -0.040816901
H   -2.500696146   0.000257571  -0.109169733
C   -0.709401197   1.193175380   0.006521983
H   -1.213511626   2.148747839  -0.025528309
C    0.679651666   1.139956229   0.091893028
H    1.259260730   2.054510898   0.125502478
C    0.020597053   0.666444151   3.597553359
H    0.931071056   1.225929870   3.438438516
H   -0.888950445   1.228848378   3.754513863
C    0.020929737  -0.666243149   3.597685598
H    0.931665428  -1.225325633   3.438675165
H   -0.888358357  -1.229067920   3.754774749
