17

N    1.381382191  -0.000233477   0.131463739
C    0.679350788  -1.140239457   0.092079660
H    1.258719604  -2.054962232   0.125883611
C   -0.709722319  -1.193114069   0.006664265
H   -1.214087679  -2.148561633  -0.025308510
C   -1.421613574   0.000133427  -0.040816901
H   -2.500696146   0.000257571  -0.109169733
C   -0.709401197   1.193175380   0.006521983
H   -1.213511626   2.148747839  -0.025528309
C    0.679651666   1.139956229   0.091893028
H    1.259260730   2.054510898   0.125502478
C    0.022039062   0.666451138   3.757785740
H    0.932513065   1.225936857   3.598670897
H   -0.887508436   1.228855365   3.914746244
C    0.022371746  -0.666236162   3.757917979
H    0.933107437  -1.225318646   3.598907546
H   -0.886916348  -1.229060933   3.915007130
