8

C   -0.601729956  -0.028570118   0.384934916
H   -1.663735430  -0.028526566   0.379014311
C    0.610109174  -0.028663644   0.388163788
H    1.672135444  -0.028793082   0.387967520
C   -0.015943438   0.200556824   6.977192513
H   -0.012549058   0.166821772   5.913895631
C   -0.019879861   0.238846847   8.188657896
H   -0.023146093   0.272222728   9.249569314
