15

C    0.780147171  -0.609914733  -1.207556891
H    0.896191595  -1.137639594  -2.144144625
C    0.477942753   0.750993631  -1.207895407
H    0.356964231   1.278167803  -2.144054074
C    0.327289279   1.431867868  -0.000000000
H    0.091465028   2.487139215   0.000000000
C    0.477942754   0.750993631   1.207895407
H    0.356964231   1.278167803   2.144054074
C    0.780147171  -0.609914733   1.207556891
H    0.896191595  -1.137639594   2.144144625
C    0.931648311  -1.289981342   0.000000000
H    1.168485730  -2.345213690  -0.000000000
O   -2.927711248  -0.289902451  -0.000000000
H   -2.762907253  -1.234623979  -0.000000000
H   -2.040410305   0.081687874  -0.000000000
