18

C    0.759749176   1.031275058   0.373772394
H    1.435016257   1.875664269   0.374704616
C    1.266617787  -0.267362341   0.421273076
H    2.334915967  -0.429180190   0.459432338
C    0.395320544  -1.355991164   0.424905109
H    0.788661934  -2.362492586   0.463035490
C   -0.982205637  -1.146654408   0.381270236
H   -1.657656316  -1.991140192   0.385121003
C   -1.489346115   0.151149791   0.337572337
H   -2.557947039   0.313750489   0.307719001
C   -0.618775155   1.240331207   0.333883729
H   -1.011761615   2.247106897   0.304369215
O   -0.060703910   0.246096390   4.990726427
H    0.025396305   0.295969481   4.033532882
C   -0.956854509  -0.811517683   5.273781466
H   -1.052575203  -0.868252267   6.354717602
H   -1.949004097  -0.639819943   4.849991262
H   -0.590394191  -1.774558752   4.910869950
