7

C   -1.006867219  -0.030568213  -0.024772854
H    0.059003329  -0.060939737  -0.049365618
C   -2.218743796   0.003173470   0.002599196
H   -3.279277302   0.033524906   0.027200480
O    2.846065312  -0.167915022  -0.132924589
H    3.416421727  -0.757684403   0.364102337
H    3.418061154   0.183073000  -0.818296743
