25

C   -2.275344982  -0.135074939   0.831333870
H   -2.490717763  -0.727926686  -0.057566351
H   -2.226323818  -0.818446408   1.678823407
H   -3.112025664   0.544943419   0.987400079
C   -0.961698124   0.619277891   0.669399201
H   -0.788699202   1.250431809   1.544702661
H   -1.026176875   1.295445240  -0.186458382
C    0.226502174  -0.314710314   0.479985794
H    0.309444388  -0.975139115   1.348037935
H    0.039150560  -0.965998753  -0.378789833
C    1.543001678   0.421174521   0.268999505
H    1.711638628   1.107771769   1.102446539
H    1.466094657   1.043743312  -0.625293582
C    2.727576325  -0.526860908   0.137459311
H    2.588741553  -1.203213913  -0.705757340
H    3.661501004   0.011693084  -0.015968628
H    2.835194072  -1.137409942   1.034075121
C   -0.452171533  -0.279720304   3.960507029
O   -0.874785473  -1.394900551   3.763360450
O   -1.265863891   0.779245214   4.193096509
H   -2.166626000   0.424864676   4.152560769
C    0.988095530   0.129945777   3.977712412
H    1.613918595  -0.740235168   3.819557253
H    1.164132944   0.864219411   3.194587832
H    1.225406777   0.599246731   4.929514803
