18

C    1.629714821   0.503012521   0.270111893
H    1.641573379   1.459237915  -0.248082857
H    2.315319189  -0.183554704  -0.217586349
H    1.969745637   0.649360241   1.293981048
C    0.261827758  -0.132861222   0.314562207
O    0.099252655  -1.309616022   0.611839952
N   -0.773502253   0.702512143   0.022075900
H   -0.569011376   1.666556766  -0.165814339
C   -2.150012139   0.265968653   0.095053281
H   -2.144737613  -0.819407453   0.100912103
H   -2.640543180   0.615820352   1.003604421
H   -2.707743935   0.620751103  -0.768260569
C   -0.039052656   0.517582874   3.820544415
H   -0.043934220   1.259756681   4.606426986
H   -0.687585409   0.685351513   2.971860851
C    0.729457648  -0.569379055   3.890354028
H    1.374762613  -0.741204696   4.740481892
H    0.724345661  -1.304579181   3.098044749
