15

N   -0.083032490   0.000714589   1.055199987
C   -0.202853764  -1.141725850   0.364933690
H   -0.098485626  -2.055097952   0.937432624
C   -0.446781438  -1.191763671  -1.004512261
H   -0.533649208  -2.145855109  -1.504171553
C   -0.574682087   0.003439534  -1.704309480
H   -0.763683910   0.004480103  -2.768726700
C   -0.453456753   1.197242545  -1.000916473
H   -0.545630798   2.152272643  -1.497795085
C   -0.209311108   1.144507590   0.368367296
H   -0.110167072   2.056697259   0.943573961
C    0.443388226  -0.005398927   5.334814203
H    0.558798270  -0.004824735   6.389828025
C    0.311318463  -0.005948662   4.128566903
H    0.193170347  -0.005686234   3.064061429
