21
Coordinates from ORCA-job BPCpFe_0_gas
  Fe  -1.32243408106939     -0.62119478747253     -0.76520096823684
  C   -1.72209593036902      0.33353909809651      0.99821369591956
  C   -1.88423893184749     -1.08388872137569      1.14554914746351
  C   -0.63405800797425     -1.70883504100386      0.82380481366579
  C   0.30063087601850     -0.67763652798715      0.47726223618554
  C   -0.37171966629656      0.58467018443902      0.58529082304606
  H   -2.49365054663213      1.08332468281989      1.14851203202831
  H   -2.80007011175114     -1.59572912412398      1.42719761822544
  H   -0.43686462623033     -2.77708127816652      0.81919241831689
  H   0.05917511598863      1.55807693677998      0.36883003867348
  C   -0.62330348313429     -0.90198220192983     -2.66632200422201
  C   -1.55814279233399     -1.93196520776753     -2.31659824746183
  C   -2.80718538045982     -1.30560461700786     -1.99300260258927
  C   -2.64425443774831      0.11144469813530     -2.14279706601969
  C   -1.29453530247097      0.36094372722413     -2.55883879713841
  H   0.41723512900053     -1.05058738265529     -2.94064249573687
  H   -1.34979266929702     -2.99745033601069     -2.27934751676319
  H   -3.71040913755829     -1.81351939343508     -1.66703627614778
  H   -0.85184298152461      1.33659764623642     -2.73819025408876
  H   -3.40235286517364      0.86519911055147     -1.94992793839738
  H   1.33019383086361     -0.82788646534671      0.16502934327750
