21
Coordinates from ORCA-job BPCpMns3_1_D4
  Mn  6.34325762835067     -1.54916192098182      5.95373536076878
  C   5.76246339183898     -1.49376381280817      8.05605519977269
  C   6.71876936306933     -2.53188269667493      7.87796991741380
  C   7.91020499474540     -1.95897167936279      7.33754813820795
  C   7.69208892608926     -0.54502922321985      7.18462200509293
  C   6.35174053343078     -0.26136641782060      7.62934659754402
  H   4.74302299058029     -1.62288376087509      8.41131677256231
  H   6.55117933172972     -3.58935604264534      8.06793816798063
  H   8.81877969743504     -2.49802782417219      7.08306456761349
  H   5.87472174695232      0.71466013737254      7.64609092801172
  C   6.87964931956784     -2.27525352705146      4.02465678839516
  C   5.62124720941576     -2.86468537223116      4.35482702306067
  C   4.67903178458515     -1.82048135184856      4.56871858052306
  C   5.34282664513772     -0.56819317418677      4.37109756662394
  C   6.71372537519804     -0.84598037839171      4.02740356068652
  H   7.80007857317911     -2.81273498676497      3.81308103690369
  H   5.42962148126963     -3.92805098272861      4.47712185835120
  H   3.64428041996145     -1.95123602451535      4.87587559416371
  H   7.47682985439092     -0.11113652296308      3.78755174514440
  H   4.89011235699941      0.41568802620421      4.45763073303018
  H   8.41582978407301      0.18043424066573      6.82441204514896
