21
Coordinates from ORCA-job CpMns3_I
  Mn  6.34349703867776     -1.54891099003355      5.95364545570811
  C   5.76194165163029     -1.49390801199756      8.05396994178194
  C   6.71828596436897     -2.53183563977388      7.87587613850969
  C   7.90968870174411     -1.95911106960898      7.33560970358157
  C   7.69158894732722     -0.54496078648981      7.18263726986922
  C   6.35114588101383     -0.26154427763925      7.62741165656285
  H   4.74196903256463     -1.62383936717905      8.40680542613948
  H   6.54926740126093     -3.58937321792571      8.06324540375613
  H   8.81714411066663     -2.49839801048519      7.07862761712193
  H   5.87306372925494      0.71374166502093      7.64160116474033
  C   6.88029116419211     -2.27511517700634      4.02654517023649
  C   5.62195639402540     -2.86425097240412      4.35680630848950
  C   4.67979490210388     -1.82015921022163      4.57074006457570
  C   5.34352249982498     -0.56797656165966      4.37300946582519
  C   6.71449466633587     -0.84561402240793      4.02926731750186
  H   7.80117379959870     -2.81239682748330      3.81764665185908
  H   5.43053725630286     -3.92714333490237      4.48201105525224
  H   3.64600125904447     -1.95120931539166      4.88030106614433
  H   7.47815511783277     -0.11102228035928      3.79167134797312
  H   4.89147809670288      0.41570725647518      4.46231062779849
  H   8.41446379352664      0.17990685647319      6.82032533357260
