21
Coordinates from ORCA-job CpNi_0
  Ni  6.36269072614400     -1.52043379245580      5.94496241398307
  C   5.75387586024638     -1.50212321152787      8.05156938398455
  C   6.71116935680107     -2.54372320849971      7.85299535890265
  C   7.93215665280267     -1.94388378295437      7.41696700985434
  C   7.72949801119969     -0.53156799770943      7.34604473998884
  C   6.38324678554068     -0.25854127685416      7.73824281227567
  H   4.72397410047304     -1.63390977099091      8.37045402802188
  H   6.53685936275180     -3.60644361187535      7.99439532167720
  H   8.84910025542696     -2.47048723176473      7.16865303026529
  H   5.91587405396988      0.72115547718874      7.77716350342801
  C   6.84852203660099     -2.28343483968039      3.94746159939282
  C   5.62144098953021     -2.87038508900826      4.38394378187587
  C   4.67384403486594     -1.81917944109699      4.57832344172179
  C   5.31526686723016     -0.58255399125785      4.26197527126192
  C   6.65929632448398     -0.86947104046109      3.87206660748233
  H   7.76825738163366     -2.81712500603885      3.72606665313140
  H   5.44445525985078     -3.92866240536944      4.55270346684469
  H   3.64994742814416     -1.93795911954555      4.92079068356119
  H   7.40991889602120     -0.13944510197956      3.58331320960074
  H   4.86464316389476      0.40391586965912      4.32171792182310
  H   8.46529845238793      0.20406857422247      7.03429375992258
