12
0 1
O         -1.76373       -1.96576        0.00000
O         -0.89462        2.50848        0.00000
N          0.42311       -1.28966        0.00000
N         -1.27512        0.26172        0.00000
C          0.97951        1.02825        0.00000
C         -0.42600        1.38423        0.00000
C          1.33933       -0.27265        0.00000
C         -0.92554       -1.06366        0.00000
H          1.71295        1.81594        0.00000
H          0.72586       -2.27175        0.00000
H         -2.26742        0.45446        0.00000
H          2.37167       -0.58959        0.00000
