13
0 1
N         -1.29694        0.43034       -0.02340
N         -1.34139       -1.84193        0.41237
C          0.79406       -0.73524        0.14706
C          1.48889        0.43995       -0.06004
C          0.78027        1.62788       -0.25242
C         -0.60169        1.56171       -0.22498
C         -0.61428       -0.71397        0.16066
H          2.57024        0.43298       -0.07378
H          1.28139        2.56881       -0.42045
H         -1.19572        2.45576       -0.37450
H          1.31622       -1.66976        0.30024
H         -0.86023       -2.71490        0.28659
H         -2.32080       -1.84162        0.12264
