16
0 1
  C   2.44537605978403      0.58243355430195      0.19472988649768
  C   1.49412670548446      0.08355755413855     -0.90547381065820
  C   0.08710480416195     -0.08874178226675     -0.36001141539645
  C   -0.26680698572319     -1.42185453688859      0.25727942422258
  O   -0.70689376956427      0.83488134963717     -0.40367546261817
  H   3.46107415688089      0.72496954787478     -0.20465754946784
  H   2.51162308964334     -0.13254293361716      1.03097666156602
  H   2.09861479971670      1.54679012481647      0.59772454549350
  H   0.53979762645100     -1.77553780844949      0.91981146255300
  H   -0.36446623882027     -2.16900586145206     -0.54998314689394
  H   -1.22067934209896     -1.34071466121856      0.79589386332190
  H   1.44789734266118      0.82017184209504     -1.72218131004105
  H   1.85991369716857     -0.87332270330479     -1.31364610476736
  H   -2.37035814109232      0.48875952288671      0.47512134886810
  O   -3.02186575449884      0.10426179010733      1.09343576632966
  H   -2.77271605015426      0.50549000133940      1.93730984099055
