16
0 1
  C   2.22339859146436      0.66601219237016     -1.09791219766170
  C   0.96727480856616      1.02596481369225     -0.36268818378185
  C   0.01131859270039      0.19604153241958      0.09189546179977
  C   0.00083793384667     -1.30434818399327     -0.03112529802773
  O   -1.07839906889040      0.71846708821766      0.73603858882326
  H   2.25972989673342      1.15075287421072     -2.09054020022827
  H   2.33277314405040     -0.41680867491935     -1.25777010011076
  H   3.12121978065684      1.01169194899412     -0.55365499843965
  H   0.87328683301319     -1.69635632353992     -0.56903732297216
  H   -0.90807954443222     -1.64553848192839     -0.55776705021566
  H   -0.02078709893706     -1.77206281077686      0.96963310561290
  H   -1.82356166085339     -0.04924911810893      1.53421038560577
  H   0.79323054036931      2.09064125165548     -0.16978130247189
  H   -2.29439481310714      0.25739840981989      0.45892301294392
  O   -2.90491046983257     -0.40030441395338      1.22678077055007
  H   -3.55293746534795      0.16769789584025      1.67279532857398
