15
-1 1
  C   -0.00454344402140     -0.00690934513137      0.00284146075471
  C   0.00346200198012      0.00611098541234      1.52106500082788
  H   1.01937456195317     -0.00527236851795     -0.40649133994117
  H   -0.53350500152467     -0.97209667004853     -0.21251691697469
  H   -0.55451753314480      0.85725134398608     -0.40569979352399
  C   -1.42090917466388     -0.00175942975756      2.05070565302556
  C   0.76193275878358     -1.19961474853715      2.04985385927702
  H   -1.44198133775259      0.00168327680252      3.15326886022531
  H   -1.99362171833299      0.86484107487169      1.68083505943906
  H   -1.81680681075167     -0.95889643519106      1.63228899392821
  H   0.77522016494969     -1.21660594293413      3.15245675111347
  H   0.16794539742308     -2.04769792778978      1.62894433773977
  H   1.80110592904993     -1.21486050859014      1.68152328881431
  F   -1.33807246753213     -2.45734880963082      0.52488688002674
  Cl  0.87628773358459      1.59548998505589      2.12770102526781
