11
0 1
  H   -0.34720575680698      1.97694398016000     -1.60457858536777
  C   -0.62800003131564      1.29368060062495     -0.79679396803753
  C   0.24623411201498      0.42663421338721     -0.25088948085328
  H   -1.65318098530179      1.32155864021107     -0.42145343502381
  H   0.28866276205175      0.10507153106459      1.01871645211961
  O   1.53488672630752      0.25935542568311     -0.60570028288133
  H   1.88897443599477     -0.38191321206116      0.05251701260958
  O   0.62729626995572     -1.21086632309947      1.49872629894714
  C   -0.30456484812914     -1.10971661462212      0.55996351256090
  H   -1.34892504413432     -0.84544220657482      0.83985587124720
  H   -0.30417764063688     -1.83530603477337     -0.29036339532070
