11
0 1
  H   -1.84720474881617      0.70184807777353      1.07905575218446
  C   -1.71152466791952      0.25472741280807      0.08465958513057
  C   -0.37363994757231      0.22434713230597     -0.51973950636186
  H   -2.59785460128381      0.28435481615470     -0.56301058516206
  H   -0.28657946353050      0.19634708742885     -1.61606779005296
  O   -0.95994311090948     -0.95155179011436      0.04754263047540
  H   1.67460616050905     -1.02126556244719      0.27215679063930
  O   1.95122007763866     -0.13584228458276     -0.00525926139533
  C   0.85140588075041      0.71856030653989      0.20661164134977
  H   1.13724501809609      1.71369417896876     -0.17367377120358
  H   0.61046740303759      0.82841662516452      1.28401851439628
