21
0 1
  C   2.52390399241300     -1.11489596658978      0.35839293671941
  C   1.56706254601717     -0.02144463889259     -0.07043131650193
  H   3.07829182803113     -0.83780811044105      1.26640140211737
  H   3.22563760168936     -1.25824106962302     -0.48019138695689
  H   1.98382299945092     -2.05789318009988      0.51841579039146
  O   2.20659114724720      1.19503145834395      0.11401433895331
  O   1.58824054143615      2.19822510018581     -0.70098237919364
  H   1.18683840332787      1.58919288530521     -1.38406269750086
  O   0.92160225790182     -0.13878636683468     -1.23665791094525
  C   -1.22480432275063      1.05678709040901      0.17235428384700
  C   -0.57289401189214     -0.10121358564145      0.02129833997790
  C   -1.00164071079183     -1.51448115119668     -0.12172776303062
  H   0.63901200277441     -0.05596590424215      0.78989934896943
  H   -1.94795673667368     -1.65614514535254      0.42509720431718
  H   -0.26724181219529     -2.21211810680347      0.30291702966699
  H   -1.13675439665540     -1.76965762886225     -1.18225620847274
  C   -2.72803544128148      1.15015551847560      0.23507081660715
  H   -0.64996744251076      1.98244563484448      0.22795372716491
  H   -3.21586875874214      0.16489387294566      0.22317997136137
  H   -3.12045631713498      1.72211795118150     -0.62518690643265
  H   -3.05538336966068      1.67980134288830      1.14650137894110
