16
0 1
  C   2.29055976574594     -0.87304750056168     -0.26735026039115
  C   1.48774952755635      0.10057523579219      0.08596865175619
  C   0.67898218158056      1.06822148692720      0.44591111363436
  C   -0.77516636677652      1.21363853857394      0.04842945597428
  C   -1.40508024876833     -0.00401800330223     -0.63389661661711
  C   -1.60938195266162     -1.19912272760246      0.29853372117589
  H   -0.65388943930243     -1.55497626744845      0.71297220330993
  H   2.88044743354838     -0.82338022034687     -1.19030653285135
  H   2.40099200245870     -1.77504757553094      0.34686553177470
  H   -2.37830432042672      0.29979587343661     -1.05641618224194
  H   -0.77763638036449     -0.30318128479992     -1.49164463553947
  H   -2.07897962010903     -2.04348957369123     -0.23126038300863
  H   -2.26286313303387     -0.93200691601811      1.14646089092074
  H   -1.35727172513216      1.47630755755056      0.95152668904896
  H   -0.85661334147027      2.09535514788761     -0.61486387170526
  H   1.09147061715551      1.86996222913374      1.07464522475982
