14
0 1
  N   1.07341917368428     -1.29007713899083      0.85620625312691
  B   1.44010751067913      1.32786916349169     -0.63789316158606
  B   -2.23303119710133     -0.13965797802173     -0.63314794352319
  N   -1.38272556608174      0.37194781377233      0.33748269788410
  H   0.68892240916228     -2.03857047460030      1.43600688708577
  H   1.94592064454942     -0.99111186499322      1.29410829936468
  H   1.32954899819499     -1.71646548184245     -0.03595439490734
  H   1.36808791687176      1.90518599053640      0.41731811855330
  H   2.33489727497983      0.54143323653820     -0.82702054058193
  H   0.69258047891256      1.60873830208557     -1.53562412426006
  H   -3.21581583486285      0.48109058163562     -0.96959619116464
  H   -1.97212551200453     -1.21425916322944     -1.12878902445274
  H   -0.53469213129490     -0.11690502368425      0.64515611953378
  H   -1.53509416568891      1.27078203730239      0.78174700492742
