20
0 1
  C   0.38808805414622      0.40593986030064      0.22037685330488
  C   1.47508220521245      1.26528543952471      0.01049927522596
  C   2.75720399735279      0.75771191212704     -0.22398608455656
  C   2.96763374262201     -0.62272442072424     -0.25553926155280
  C   1.88848437998392     -1.49003666771166     -0.05327868514254
  C   0.61008877983736     -0.98133318430125      0.18267438047436
  O   -2.51541997130938     -0.84561574128230     -0.38862183613204
  C   -1.00112032501599      0.94811794813954      0.48196580237700
  C   -2.02422621587052      0.48513354044750     -0.53277080771653
  C   -3.42367753236871      0.22657469895397     -0.16614942401942
  H   1.31692965817546      2.34776202242799      0.03373023737957
  H   3.59293960590978      1.44426917443889     -0.38330376686122
  H   3.96837866993769     -1.02283343719101     -0.43771347780708
  H   2.04454622587306     -2.57191395904772     -0.07775719029012
  H   -0.23369227404477     -1.65825645360708      0.33375002629041
  H   -1.34373286240362      0.63511419924089      1.48340454743220
  H   -1.80454052766490      0.76826306910375     -1.57299905474277
  H   -4.21872911483304      0.34105375764218     -0.91508441381488
  H   -3.74173341375736      0.37437396871386      0.87540240005075
  H   -0.97683108178243      2.05080227280429      0.47913448010081
