20
0 1
  C   -0.87595073670098      1.44758026405508      1.84580132499670
  P   -0.18772467122228      0.37370232414861      0.48679604006764
  C   1.62090555737218      0.49806011004882      0.77672555136786
  C   -0.64530013721692     -1.30963571947704      1.07017733928636
  H   -0.49650992968160      1.13939465264697      2.83571142152859
  H   -0.59594559284546      2.49838657314885      1.67215216090835
  H   -1.97514169355406      1.38097467958256      1.85307127348711
  H   -0.32242555949305     -1.46933582775917      2.11248109476105
  H   -1.73708535580941     -1.44072767517418      1.01009943045615
  H   -0.14921670156673     -2.01259932275424      0.38870602517301
  H   1.89659098463781      0.10910032886122      1.77053032370242
  H   1.93117829666351      1.55245283377311      0.70732714055075
  H   2.10044699866925     -0.08977763855833     -0.01714634865679
  H   -0.83111464610365     -1.66446643920091     -2.67059950009735
  C   0.04965930565283     -0.98399210762824     -2.58329465712813
  C   -0.30537544256856      0.34499196004926     -2.07356393347176
  H   0.54832973668943     -0.97515336287142     -3.58433909019391
  H   0.44124376038986      1.13512961081259     -2.17441318689128
  H   -1.33396069125229      0.67846687032428     -1.92963434185503
  O   0.86739651794015     -1.21255211402781     -1.49658806799170
