12
0 1
  N   0.60798235072729      1.01550846284788     -0.19282137972103
  B   2.01593021225228      0.95465250110529     -0.09669094616742
  N   -0.60798505668002     -1.01575846031022      0.19275951709097
  B   -2.01588858086252     -0.95456980156889      0.09673818614787
  H   0.03253460145462     -0.12573917420956     -0.56027884158969
  H   2.50957033958022     -0.11974851377188      0.17306948926779
  H   2.71736079888123      1.92372722769752     -0.27296939633627
  H   0.16410789023713      1.90586499630861     -0.41821531358033
  H   -0.03225798072177      0.12582439119974      0.56015049856304
  H   -0.16442259342198     -1.90626802066424      0.41816818084459
  H   -2.71760309199512     -1.92344372565291      0.27309394662864
  H   -2.50932888945135      0.11995011701869     -0.17300394114819
