20
0 1
  C   0.14193375625136     -0.24534810092882     -0.27546414556907
  C   0.90958122335759      0.73980352953237     -1.01150769805408
  C   2.20666555069672      1.06055859639741     -0.65222558315627
  C   2.85149397728454      0.37140170222626      0.38915883245672
  C   2.18328568269223     -0.67804464065113      1.04418205415673
  C   0.88807624362407     -1.01520468105500      0.69526848992447
  O   -0.85098613396894     -0.97914010375554     -1.02445429524966
  C   -1.25086222271311      0.55672186771567      0.50350161068676
  C   -1.95904768484765     -0.11243787952641     -0.67552786567100
  C   -3.16482417681958     -0.72341739814439     -0.19647406027589
  H   0.41931555786191      1.24591845263829     -1.84729018116090
  H   2.74432450246115      1.83695944070698     -1.20333576251757
  H   3.87886677786836      0.62320101902564      0.66130970083637
  H   2.70220687002099     -1.25369234989224      1.81543484991131
  H   0.37116020667039     -1.85395193099510      1.16795874724611
  H   -1.39352144427972      0.05436113752944      1.46734920257535
  H   -2.15900661793730      0.62333133111468     -1.47784022435648
  H   -4.15015715235465     -0.34100664180783     -0.46907308514901
  H   -3.09804946801974     -1.56309496365586      0.50021021593494
  H   -1.27045544784863      1.65308161352559      0.58881919743120
