18
0 1
  C   -0.21454513914796      2.09041206711220     -1.96063193126184
  C   -0.34304134621046      0.79159745437569     -1.12515895150521
  O   -1.18891409162738     -0.03348807736950     -1.50354704739449
  F   -0.13124504055533      1.81039005812040     -3.26547089712045
  F   0.86128334693181      2.80587333550485     -1.62240724851493
  F   -1.30060167230681      2.85288259252792     -1.76139406824224
  O   0.37130022408001      0.67526679779873     -0.10975711864756
  C   -0.65920406483199     -1.26853715455835      0.32338299847799
  C   -1.62123986375520     -0.76991001670635      1.32299442635749
  N   2.39889398659304     -1.06966831719197      1.19649635460964
  H   -1.04213414577583     -1.92847894061071     -0.45400391401971
  H   0.38696718205101     -1.41227048768164      0.62611176273024
  H   -1.89541560154458     -1.65255907076315      1.93948739986582
  H   -1.18325626901203     -0.01291562347084      1.98554170135286
  H   -2.54692715768657     -0.39635017038016      0.86424586282407
  H   2.78024030010381     -0.86740367821853      2.12229619196903
  H   3.17297794856282     -1.44595987354039      0.64581335212220
  H   2.15486140413162     -0.16888089494819      0.77600112639708
