20
0 1
  C   -0.31453245955038     -0.35947860521650      0.14181924750571
  C   -0.64450182998895      0.99808860666992      0.26234762519522
  C   -1.98248634815379      1.39340117567396      0.14843186181413
  C   -2.99068246300740      0.45711430286116     -0.08467589986157
  C   -2.65142930029917     -0.89678075464612     -0.20518503712449
  C   -1.32484283540348     -1.30603425806222     -0.09305925274800
  O   0.95417050062877     -0.84917668276919      0.24225660895197
  C   2.60741768004499      0.82491786027016     -0.60058736640988
  C   1.99453335376547      0.03848490566068      0.52637397090201
  C   3.33691066719299     -0.35506904460050      0.00555622105094
  H   0.13119155458063      1.74348141087165      0.43552922099166
  H   -2.23243130572198      2.45351808323307      0.24371079090259
  H   -4.03171342320368      0.77594416105048     -0.17298263341639
  H   -3.42968451549496     -1.64246382518126     -0.38811797739427
  H   -1.04034640088136     -2.35650477673884     -0.18189544103771
  H   2.16284387560624      0.68739000655274     -1.58996465242565
  H   1.92190188219615      0.50577511417886      1.51731655503649
  H   4.21161920402264     -0.17171664228666      0.63517373632748
  H   3.37248329723512     -1.27781068767997     -0.57978493851505
  H   2.97015286643215      1.83644265015857     -0.39528363974519
