16
0 1
  C   -0.42804478498648     -1.38508230517836      0.68483704989551
  C   -1.10071485649969     -0.60426680553676     -0.22102693556366
  C   -0.58779003438624      0.75706033882977     -0.48555160659263
  C   -1.22857976845672      1.51039388267709      0.51984141726658
  C   1.56076843807813     -0.80693125265878     -0.23175022522195
  C   1.26499895021707      0.56108859871158     -0.49447385459873
  H   -1.90177399787348     -0.99602141804911     -0.85397806773830
  H   0.07172214917010     -0.91499106485333      1.53492950725288
  H   -0.70053901993915     -2.43463321222519      0.83753497216545
  H   2.12219157084918     -1.10374692399931      0.65581899862326
  H   1.57651015915315     -1.53021629979310     -1.05029769851843
  H   1.45085067573309      0.89917963640325     -1.52006877092591
  H   1.63077722712194      1.28270446206193      0.24381090730115
  H   -1.69355143812680      2.48299494816447      0.32487174909442
  H   -1.23827825337140      1.15524998374773      1.55212854165613
  H   -0.79854701668273      1.12721743169812     -1.49662598409578
