9
0 1
  C   -0.57278942544397     -0.00000696267193      0.64769278529283
  H   -0.67060849178478      0.91772144022705      1.23450551117855
  H   -0.67061179454838     -0.91775161769606      1.23447975980137
  C   -0.93791081550729      0.00001164348964     -0.68152247576562
  H   -0.99527000489361     -0.93217388177343     -1.24952330391848
  H   -0.99526687858010      0.93221265351941     -1.24949815422559
  C   1.32228334575966     -0.00000903384244      0.46561973450466
  F   1.76008372977824     -1.05742540350201     -0.20089004375507
  F   1.76009033522024      1.05742116224976     -0.20086381311266
