16
0 1
  C   2.84557361665013     -0.45854659497270     -0.07720066012932
  C   1.62070082493808      0.09340210429964      0.58894865450967
  C   0.34708083953047      0.01928725398878      0.16034033102657
  C   -0.13127897198996     -0.65798235815176     -1.09432410418858
  O   -0.63307493211697      0.62424873260378      0.89183520905402
  H   3.57578600689546      0.33892655220076     -0.30861075973681
  H   2.62342731590145     -0.97693244569370     -1.02204222593454
  H   3.37362073674633     -1.17976107762112      0.57391694899469
  H   0.67872797330211     -1.15925978071114     -1.63818955919976
  H   -0.60007664685425      0.07807928864091     -1.77174110203265
  H   -0.90927923144364     -1.40439755751438     -0.85820572517892
  H   -3.44330263793616     -0.61100221507682      1.09662745501730
  H   1.76972109714276      0.63179908776245      1.53190150337484
  H   -1.51142201950837      0.36242117168089      0.55612863729701
  O   -3.19987830967781     -0.21382288546591      0.24773874660807
  H   -3.81129366157962      0.52968872403036      0.14621165051838
