17
0 1
  C   1.18948794761320     -0.77902008340434     -0.51469737173688
  C   -0.08622748241589     -1.12689982220386      0.32364464976525
  C   -1.27602867479992     -0.67155585509938     -0.50901377108258
  C   -1.27601347654515      0.67158715664281     -0.50901124172697
  C   -0.08620203839753      1.12690046781746      0.32364943687766
  C   1.18950378947261      0.77899579447276     -0.51469604595797
  H   -0.11770011014044     -2.16201722109584      0.69055162447768
  H   2.09080552001429      1.18065568997406     -0.02513944513645
  H   1.14190239168776     -1.20848491295008     -1.52596036070968
  H   -1.92203002079978      1.33298425356802     -1.09064053543520
  H   -0.11764931915887      2.16201689843447      0.69056131948635
  H   1.14192217314250      1.20846162420377     -1.52595871119277
  H   2.09077961394775     -1.18069801421398     -0.02513707002677
  H   -1.92206133309113     -1.33293613821556     -1.09064422628168
  C   -0.04125460929224     -0.00000244566957      1.38068860544037
  H   -0.91902969818267      0.00000589528956      2.04411223856102
  H   0.88153632694550     -0.00001427755030      1.98433790467864
