11
0 1
  H   2.44547278037476      1.05874753005753      0.23743632237164
  C   1.41864855662789      1.16671579357755     -0.11685546018525
  C   0.55134040849011      0.14930300826759     -0.03613731702604
  H   1.11272126040823      2.11330014517497     -0.56468932447245
  H   -1.84351711580567     -0.06206334360682      1.10828417842493
  O   0.88017152013491     -1.05331865349540      0.49786745660802
  H   0.04078171428726     -1.53022418290437      0.62482074917886
  O   -1.73447564729564     -0.55394749844748      0.28176936859697
  C   -0.86590115176032      0.19301740694878     -0.56348466220141
  H   -1.20134695016143      1.23445090979403     -0.70631789568444
  H   -0.91018037530007     -0.31223511536637     -1.54373541561085
