11
0 1
  C   0.11872954793916     -1.11010604911068     -0.25794622695822
  H   0.11367330185558     -2.16082458651730     -0.54776122401583
  H   -0.54025208014841     -1.02086288496832      0.87681918855627
  C   1.21610186024270     -0.22344855080995     -0.19680880806856
  H   2.26348588673867     -0.51474458498521     -0.26910873292073
  C   0.72391087922123      1.07317799098308      0.02406559702541
  H   1.34338404586034      1.96022278216218      0.16886225128106
  C   -1.10772576498408     -0.28714948658626     -0.05605085878505
  H   -2.12510086286380     -0.65877574721647     -0.17793106251347
  C   -0.67727881812890      1.04712419118721      0.11458474098459
  H   -1.32892799573249      1.89538692586171      0.32127513541453
