8
0 1
  C   -0.25713800211254      0.65854405733791     -0.00000005600100
  H   -0.32719023081564      1.23702783225803      0.92441125552170
  H   -0.32719198120942      1.23702890320577     -0.92441056041080
  C   -0.37558863944055     -0.74388710314788     -0.00000011843001
  H   -0.64979265161836     -1.24928482165217     -0.93095733078770
  H   -0.64979006048513     -1.24928440341863      0.93095811205164
  F   1.63382861651795      0.59073266477906     -0.00000026111202
  H   0.95286294916369     -0.48087712936209     -0.00000104083181
