11
0 1
  H   -0.34135979210566      2.49047300495253     -0.82763546783840
  C   -0.57984443446667      1.46373434799905     -0.53277071160413
  C   0.39281393085345      0.60930630063004     -0.03636229701344
  H   -1.61690305538132      1.12409054475143     -0.57020988218849
  H   -0.15580979233876     -0.09297893350629     -0.90103818075432
  O   1.59454538478652      0.66075911594900      0.22545069951143
  H   1.62846214253101     -1.00829587056467      0.69728470296686
  O   0.95296305214564     -1.73804512049501      0.61024771275112
  C   -0.20826072109836     -1.08884945336835      0.39082278320105
  H   -0.80607059766250     -0.80535971420549      1.27769034823432
  H   -0.86053611726334     -1.61483422214223     -0.33347970726602
