8
0 1
  H   -0.17797975708008     -0.46121713183949     -0.05626886324456
  C   0.26550664389650      0.40895855703154      0.43866435978210
  H   1.34015750469409      0.36129709726622      0.64276738218657
  C   -0.46530826668476      1.47192932536529      0.77811264733459
  H   -1.11799614139171     -0.80857614556098      3.84770888954602
  H   -0.89847432992083     -0.45219114873899      3.21091454374238
  H   -0.02082460038026      2.34073097384407      1.27466700924211
  H   -1.54029105313295      1.52014347263232      0.57622603141078
