16
0 1
  C   -0.94011161965122     -1.74676930373689      0.44744094158768
  C   -1.57529302062126     -0.80762230069986     -0.35204898202382
  C   -1.32244296228106      0.56514032467379     -0.26707081157060
  C   -0.26757663689214      1.05073663543884      0.57827027622667
  C   1.24285815248068      0.23660633370837      0.23373818981421
  C   1.90931898131981      0.74186076063466     -0.87623216076973
  H   -2.19081646047359     -1.16610889224181     -1.18557145598123
  H   -0.56087776296504     -1.49549574805356      1.44022221564037
  H   -1.02133667542300     -2.81450445746039      0.22746998162026
  H   1.85615407583973      0.20861161524594      1.14829094006038
  H   0.70912716938941     -0.78732430410680      0.13219605803642
  H   1.38226813139671      0.88597931520929     -1.82538272408764
  H   2.96497402337586      1.02382261347993     -0.84445070985768
  H   -0.08525770720580      2.13034875695167      0.52168094710811
  H   -0.33394136380262      0.74327104824561      1.63243902039717
  H   -1.76704632448645      1.23144760271121     -1.01099172620054
