16
0 1
  C   2.43154406701321      0.88068969257535      0.15411745101399
  C   1.12592643924109      0.60586507782254      0.17207875764710
  C   0.48641299501614     -0.66118734618878     -0.34567497855472
  C   -0.09821786816377     -1.49637257737751      0.80129455638959
  O   -0.49170415029998     -0.37911331927012     -1.32548739865630
  H   3.15449394337981      0.17253111440805     -0.26561684165948
  H   1.26426706844537     -1.25920914954819     -0.85233270998223
  H   2.83158428305154      1.81808981443317      0.55162007058734
  H   0.67796471399614     -1.80498453594060      1.51910085722432
  H   -0.58914984687436     -2.39402050885063      0.39361128653634
  H   -0.85728253571134     -0.91111804912946      1.34736970925151
  H   -1.19483736987357      0.14401791371170     -0.89696574695177
  H   0.42325331807677      1.33815879141906      0.59448456540625
  H   -2.94319445862429      0.24719031696773      0.73644457903933
  O   -2.51073968842309      0.92562972209613      0.19905816728244
  H   -2.24410891024970      1.60480404287157      0.83420467542627
