18
0 1
  C   0.51501864772767      1.39771436995221     -1.41283514414045
  C   0.79818917182075      0.18232620537808     -0.49630979656744
  O   1.15598724367829     -0.92237891958824     -1.11324828259836
  F   -0.52568365076890      1.15395752426571     -2.21182703166847
  F   1.58975405034443      1.66808701141122     -2.18109071889207
  F   0.24934015329016      2.50958835044153     -0.70442154643404
  O   -0.20562871919944      0.11790657710184      0.48554733578430
  C   -1.31060197423727     -0.74218371938374      0.18729308862001
  C   -1.94615427222346     -1.16917711169597      1.49492726646592
  N   2.10227367980022      0.42176129520716      0.30552281867828
  H   -2.03637168449475     -0.19855741998332     -0.44441736214493
  H   -0.93749842102278     -1.60331868409117     -0.38829895869938
  H   -2.82109225103000     -1.81030865794339      1.30243177271502
  H   -1.22797876033579     -1.73451972780520      2.10974317400693
  H   -2.28039783143005     -0.29333205640849      2.07354141811764
  H   2.72689285860594      1.12558671307009     -0.09720887670119
  H   1.96128346652154      0.56475976105625      1.30977653571733
  H   2.19266829295343     -0.66791151098458     -0.21912569225907
