16
0 1
  C   -1.94447144283888     -1.63594577798423     -0.43305206345249
  C   -1.16391461027343     -0.57362976911034     -0.24236223118827
  C   -1.14664629749409      0.70960891019253      0.31640222082221
  C   -0.08134069285674      1.04560482093826      1.16557764372354
  C   1.57530662575366      0.82353621680123      0.04029673045240
  C   1.50514159669888     -0.37348640085712     -0.70739022829004
  H   0.04356855392002     -0.69956320562665     -0.63270353759277
  H   -2.93046416695831     -1.71547937735322      0.03687495069584
  H   -1.61696366817998     -2.47734074248929     -1.05148709379882
  H   1.54713629163283      1.76853272083839     -0.51072550310577
  H   2.23629912522835      0.84875626452721      0.91118668008681
  H   1.95014353310056     -1.28736111726966     -0.29970782322103
  H   1.47178913661686     -0.32281423291786     -1.80043184684466
  H   -0.00069821439997      2.07794986289102      1.52155979970373
  H   0.22777640498543      0.29802956075572      1.90311897944472
  H   -1.67266217493516      1.51360226666400     -0.21715667743539
