13
0 1
  C   0.00001335417252     -1.83743118189200      0.67031302811020
  H   0.00003589882694     -2.76024035855846      1.25686671707068
  C   -0.00001949849441     -0.51028990979924      1.36468711438348
  H   -0.89977736510594     -0.32039652284719      1.97046075858213
  H   0.89969813923676     -0.32037992504268      1.97051534654084
  C   0.00001459541179     -1.83743143086562     -0.67031345016810
  C   -0.00001640351354     -0.51029011763376     -1.36468774866388
  H   -0.89977185604323     -0.32039734862735     -1.97046542949888
  H   0.00003680498079     -2.76024085648228     -1.25686662719525
  H   0.89970354675253     -0.32038145345210     -1.97051268060824
  S   0.00001324936708      0.73291847335398      0.00000020515423
  O   -1.27997392661157      1.45010604550717     -0.00000002841430
  O   1.28004447102028      1.45002758633952      0.00000280470713
