17
0 1
  C   -3.06566648979681     -1.76745840942799      0.46335557429207
  C   -2.06829698786636     -0.69825380225260      0.11163047322311
  C   -2.09559420713400      0.65191786198508      0.69866213513081
  C   -1.57272335941599      1.89584872381225      0.00863129368354
  O   -0.70474917582167      1.66218785607172     -1.07804746923077
  Cl  2.71090085711131      0.59857371543970     -1.51632958432693
  S   1.25235880055549      0.00614046110581     -0.13294594319219
  O   -1.14277964497468     -0.31703715927359      1.13543565610232
  Cl  2.25499946650455     -1.47671827628842      0.95103200152177
  H   -2.57844213887584     -2.75561192336125      0.46682126752109
  H   -3.88246496403837     -1.79420042343965     -0.27650691592907
  H   -3.49558251492125     -1.59185995155658      1.46074908279743
  H   -1.58369848319560     -0.80940050476475     -0.86907033923895
  H   -2.87998215609886      0.86823197198294      1.44097851953143
  H   -2.44187380172446      2.51661444901133     -0.28809929507533
  H   -0.99279532304108      2.48067335916754      0.74130679186476
  H   -1.19244787726637      1.23042205178849     -1.79190824867510
