22
0 1
  C   3.21133988060551     -1.32053126640192     -0.44616571176604
  C   2.27580607608993     -0.12023669879930     -0.36385707543698
  N   1.30831654607056     -0.25132154166958      0.59932189866321
  C   0.09937745130952      0.54549309234833      0.77016020560228
  C   -1.09998618046472     -0.37342223375081      0.42868787798340
  N   -2.22612979438782      0.23286095521809     -0.02677623686901
  C   -3.43907380076295     -0.49914193806074     -0.32883431825281
  O   2.40618717975380      0.84967184074111     -1.09054516178201
  C   0.10455949838450      1.91352137596958      0.08826862736975
  O   -1.01669818969306     -1.57719549074257      0.62867288646559
  H   2.72431665456495     -2.12792541112287     -1.01839329164741
  H   3.46815417314435     -1.71640981172816      0.54872836072948
  H   4.12407587673441     -1.01853878307941     -0.97468722605160
  H   1.18611532022964     -1.18512093816894      0.98152979935017
  H   -0.01188674992812      0.72573033405652      1.85779221721671
  H   -2.19267492583546      1.22264572723615     -0.23151698287111
  H   -3.68411531357521     -0.44973265882493     -1.40349204797882
  H   -4.29561669735279     -0.10826475769971      0.24539060811925
  H   -3.27265262211255     -1.54851390723849     -0.05317583342622
  H   -0.76022952940270      2.49776536517695      0.44495936438433
  H   0.07908077357342      1.83751495745431     -1.00579382808439
  H   1.01173437305481      2.47115178908640      0.34972586828219
