8
0 1
  C   1.01751412444930     -0.65421322672724      0.03558046501072
  O   0.81221450687209     -0.10883321565996     -1.01992779185385
  N   -2.03338209600128      0.12500615061095      0.14732425331050
  H   -2.40811143167995      1.04347421039877      0.39274383473752
  H   2.02711125534512     -1.06427772208828      0.29572561832012
  H   0.20789875566169     -0.77240868223693      0.79371842366564
  H   -2.81140493336187     -0.38614676839200     -0.27436663381333
  H   -1.35902718128510      0.28781625409470     -0.60655816937731
