16
0 1
  C   -1.67069012396522      1.59189903586025     -0.16813696050109
  C   -0.41929467737492      0.82898445649473      0.28641154519866
  C   -0.38710163113008     -0.59495855807772     -0.20456099727587
  C   0.45704481162041     -1.05737521550125     -1.14331113996752
  O   -1.32060029881615     -1.43171047671038      0.32940732223384
  H   -2.59797934144984      1.09855369455091      0.16818394521767
  H   -1.71036864685148      1.65340423165616     -1.26690701972626
  H   -1.67316543562713      2.61615210793964      0.23552350349198
  H   1.16863221926368     -0.38048698348597     -1.61490312765076
  H   0.40855417324810     -2.09652078638921     -1.47494116268474
  H   2.23456297867122     -0.30655751974696      0.32037907666938
  H   -1.77681241152873     -0.98324356598822      1.05286928726235
  H   -0.37241881257970      0.81342991714634      1.39295492490290
  H   0.49953095801259      1.33656427423591     -0.03630034187071
  O   2.76604539040132      0.48519653900527      0.50291776993304
  H   3.42874084810594      0.46951684901049     -0.20097962523291
