11
0 1
  H   0.04813756560461      2.58902808299569     -1.32023465035538
  C   -0.42330008834673      1.74153460134310     -0.81532988136278
  C   0.33858969651934      0.71995115719761     -0.40853734856748
  H   -1.49927514853717      1.74317788701901     -0.64965992471621
  H   -0.40671064382229     -0.16460816837978      0.15540326727679
  O   1.52141170795855      0.31603909269833     -0.38263379042616
  H   1.47768867861771     -0.80147776163799      0.18721393548444
  O   0.96787632948616     -1.67240769252526      0.71913958183888
  C   -0.29197291276056     -1.41130042583084      0.75077798947014
  H   -0.75956656238556     -1.12408264711051      1.71430954807693
  H   -0.97287862233407     -1.93585412576937      0.04955127328084
