17
0 1
  C   1.51073699894829     -0.70776355151362     -0.26372834481198
  C   -0.62094544472753     -1.15852240797689      0.24598199604843
  C   -1.24173882644677     -0.65732458224394     -0.90730268118818
  C   -1.22226579378092      0.74821071145754     -0.86198917870966
  C   -0.58904319991255      1.15656760090170      0.32082092547635
  C   1.52980842216128      0.68217964894462     -0.21794828187008
  H   -0.60420757513788     -2.21354842256955      0.52823793346236
  H   1.92176205750488      1.19642740008894      0.66287387160249
  H   1.51685978540766     -1.22818363484564     -1.22260386168095
  H   -1.52612320029960      1.41023636009014     -1.67512946941585
  H   -0.54324043445596      2.19021544332560      0.67068074732910
  H   1.55170585385637      1.26421930799351     -1.14047237654856
  H   1.88772827504988     -1.28962599137031      0.58069430379859
  H   -1.56322925325319     -1.25705261272638     -1.76105266815463
  C   -0.60822005802279     -0.03226184426529      1.25119887626160
  H   -1.58408361827095     -0.03592023472980      1.77967102901842
  H   0.18449601137979     -0.06785319056062      2.01006717938256
