11
0 1
  H   2.66585205942286     -0.64694375132263      0.79442541000610
  C   2.31995281864348      0.14082545698021      0.12080900798986
  C   1.03976700910401      0.21885603424560     -0.24792177431713
  H   3.03888767487942      0.86996178545557     -0.25449562505657
  H   0.66737193987427      1.01120333982217     -0.90933575800485
  O   0.10164919476314     -0.67272500003285      0.17762433754841
  H   -1.83008554089979      0.58936057031875      1.24130946186959
  O   -1.78659688089083      0.70086942465091      0.28048541537244
  C   -1.21842921923931     -0.44480339474963     -0.26311931956472
  H   -1.24452196305718     -0.31012042376274     -1.35920152249188
  H   -1.76299809260006     -1.36699104160536      0.00717236664874
