16
0 1
  C   -1.90356301538692     -1.67438856692375     -0.47139178410326
  C   -1.14354382842961     -0.59784144402874     -0.27716679086846
  C   -1.16830032417284      0.70421187209988      0.23599347082908
  C   -0.14913560001067      1.08465867368082      1.12241746789593
  C   1.56102163136032      0.84636973340616      0.08590632451867
  C   1.54326854258435     -0.37975457014704     -0.61630113563793
  H   0.08328514196281     -0.72323645936167     -0.60040655218564
  H   -2.91140671692252     -1.74921369906879     -0.04956551814986
  H   -1.53705433000076     -2.53215642468487     -1.04375094009425
  H   1.54652436266485      1.76858717642750     -0.50305367155910
  H   2.17993847526531      0.91554925247219      0.98484519208541
  H   1.97929915364385     -1.27036678049553     -0.15142438379396
  H   1.56266046693397     -0.37216096564894     -1.71083744299236
  H   -0.09878161533083      2.12994004579543      1.44469639980680
  H   0.13348717556777      0.36791708777854      1.90014670560484
  H   -1.67769951972907      1.48188506869880     -0.35010734135592
