20
0 1
  C   0.45238580054190     -0.21173231106590     -0.06492333655719
  C   0.90620529976004      1.10923656270737     -0.20129532569938
  C   2.27940645475289      1.37783635752690     -0.13710175803831
  C   3.20305777112138      0.35231714324229      0.06264351364111
  C   2.74235508671566     -0.96428406494665      0.20017739232984
  C   1.38119392703426     -1.24771660830611      0.13769694536905
  O   -0.85310344238766     -0.58235461426918     -0.11131942496923
  C   -1.84414862731940      0.40508576470003     -0.34282613181643
  C   -3.18053658084859     -0.26913941864821     -0.39586833645868
  C   -4.24896430500004      0.12417869467783      0.29977188000996
  H   0.20707683575802      1.93082314388427     -0.35678436062220
  H   2.62297803072388      2.41003480266023     -0.24617490846517
  H   4.27187144594711      0.57214274078061      0.11237080526202
  H   3.45347546193431     -1.77936808758245      0.35873902904206
  H   1.00305477601250     -2.26655585496540      0.24335978287689
  H   -1.82666711059037      1.17553457093311      0.45069324133584
  H   -3.24537855638229     -1.12586143046748     -1.07744316800932
  H   -5.21355744512231     -0.38108409951074      0.20082253771596
  H   -4.20128903239732      0.97021731011477      0.99411104007355
  H   -1.63869279025401      0.91604939853470     -1.30564641702036
