11
0 1
  H   1.89077161706733     -1.76770577042592      0.20752429837356
  C   1.62936918306585     -0.80600658165651     -0.25743064727663
  C   0.36798127931670     -0.24745542944791      0.40625846014495
  H   2.48337388934601     -0.11874879395579     -0.14267823341888
  H   0.60492415356081     -0.03736814781725      1.47612610962830
  O   -0.70171426515247     -1.13786008745004      0.29863489381808
  H   -1.44252911477544     -0.61927598508720     -0.06424631024752
  O   -1.11410505084031      1.31232867742415     -0.61885657743040
  C   -0.00771051768773      1.09768464922352     -0.18375961674379
  H   1.44693631068358     -0.98059637103010     -1.32938215093323
  H   0.78981851541564      1.88285584022306     -0.18845022591444
