12
0 1
  N   0.62555456895794      1.79124976445973      0.77136095626394
  B   0.64409181394489      0.42828189471018      0.39219034296462
  N   -0.74046945872006     -1.85115561098288     -0.82007415123199
  B   -0.76607841814022     -0.42383531892171     -0.44115432780726
  H   -0.04754650519619     -2.10836272413531     -1.51731798677186
  H   1.62263460736748     -0.24200836181921      0.61171278144312
  H   0.26091844472878      0.22855618574393     -0.92648500923290
  H   -0.15576440346932      2.41378866877801      0.60618226851232
  H   1.42812801433082      2.23504743309465      1.19552556550737
  H   -0.66520583785888     -2.50965372084532     -0.04988105561132
  H   -0.47766019684983     -0.25352588354436      0.82692160119580
  H   -1.72860262909541      0.29161767346226     -0.64898098523184
