16
0 1
  C   2.18925602076157     -0.44727787280226      0.07371594924640
  C   1.69761926350966      0.96186547965876     -0.15188145201285
  C   0.78177739110238     -0.20884670997462     -0.40655947964318
  C   -0.40096932885937     -0.46393885638094      0.51223793603377
  C   -1.59849371869457      0.37541966102992      0.16325090095150
  C   -2.80214942934400     -0.09548366788658     -0.17355258813773
  H   2.08697404837501      1.51948764468688     -1.00837005839516
  H   2.32376142076262     -0.78407748798537      1.10670818391478
  H   2.91637747115921     -0.86323220524075     -0.62946112977534
  H   1.49797089362756      1.58014785951882      0.72950559705558
  H   -1.43446049642862      1.46124140233109      0.17752503081161
  H   -3.63073893842843      0.57258632634538     -0.42540065897630
  H   -3.00479901430184     -1.17195545574006     -0.20712696522347
  H   -0.67353736854489     -1.53343950710693      0.49083864739949
  H   -0.08846518646412     -0.23921674822154      1.54980540753931
  H   0.58285597176783     -0.44092386223175     -1.45915932078844
