16
0 1
  C   -1.61400932894556      1.74570908028210     -0.52365590853680
  C   -1.47009372843696      0.83955848594988      0.44913867069804
  C   -0.31272204697589     -0.07247881332971      0.64900499203119
  C   -0.20406397508041     -1.36745087165728     -0.14569730287964
  C   0.78339602699766     -0.25269658666797     -0.36841705716380
  C   2.22177227759107     -0.39066714618949      0.07668663582279
  H   -2.28059846063746      0.72274517727011      1.18091904116810
  H   -0.83644789550008      1.91830128252419     -1.27429058551412
  H   -2.51984174214396      2.35278151745292     -0.60368083849815
  H   0.65407449133282      0.30019309377440     -1.30501815686032
  H   2.68390819166970      0.59542578838394      0.25016701711776
  H   2.29318202214933     -0.96264008948190      1.01655238838008
  H   2.82655618799671     -0.91800880126694     -0.68009405110071
  H   0.13505850652259     -2.26515125481730      0.38116176801060
  H   -0.96262400896929     -1.54524959635692     -0.91332378915934
  H   0.00011448242974     -0.16349626587004      1.69687517648431
