16
0 1
  C   -0.81698694614276      1.79597425743271     -0.43516025847814
  C   0.34129241602093      1.16972672865242      0.29349308105281
  C   0.96864854689842      0.01902844516310     -0.02979541891860
  C   0.61888374182384     -0.90419044706719     -1.15653727138832
  O   -2.07415103204760     -0.98200741593028      0.62901094101672
  H   -1.41330541991868      1.04912908271493     -0.97798111982573
  H   -0.48820196645600      2.56693586662226     -1.15622302926934
  H   -1.49510742141465      2.30108369926399      0.27349256191530
  H   -0.12969969418156     -0.46973677146297     -1.82835069840632
  H   0.22058357978036     -1.85257468951071     -0.76176475271809
  H   1.52950174756961     -1.13652203099013     -1.73143660178092
  H   -2.77852124716762     -0.34089990611770      0.79071950488564
  H   0.74916477434915      1.73615435632071      1.14252042804691
  H   -1.27319639955988     -0.50088436780415      0.89240058858074
  O   2.03394044091202     -0.46034355563526      0.67377055798080
  H   2.23710187953438      0.15058974834825      1.39605148730654
