20
0 1
  C   -0.68432250105073      1.91791629735588     -0.48054172511861
  H   -1.53612906758603      1.39200879526999     -0.00763334155213
  H   -0.83315205610761      1.87569899655704     -1.56995655798047
  H   -0.65654289671130      2.95891955012630     -0.13660638980533
  C   0.59484149902475      1.23380963422406     -0.09758994569369
  O   0.70898707632263      0.01842577412506     -0.72081968850994
  O   1.42971320488056      1.64286476248071      0.66560441333084
  C   1.86656486059245     -0.78531096223494     -0.39728962813732
  H   2.01585446928416     -1.42458217904235     -1.27989464656442
  H   2.73153579083829     -0.11638244619790     -0.28559024443314
  C   1.63342670654854     -1.60957858984604      0.85636403010327
  H   1.53094654670859     -0.95504723523695      1.73479002918539
  H   2.48861812064091     -2.28281240010149      1.02769214998189
  H   0.72168653835481     -2.21730885946548      0.75169516817969
  O   -3.08424213083654      0.07891431952033      0.77541797877554
  H   -2.80541919254909      0.00277073086586      1.69817428405240
  H   -2.61283636975558     -0.66039391525464      0.33602125645008
  O   -1.46040769893080     -1.73547363087178     -0.57123759539055
  H   -1.80835617702838     -2.01909111355727     -1.42736715321640
  H   -0.76193572263965     -1.08404750871642     -0.78198540365711
