15
0 1
  C   2.70081829636740     -1.96830925576518     -0.20162893261748
  C   -0.75835216391326      0.28360425659086     -0.29027632094113
  H   -0.45740966632907      0.25011397192872     -1.34565830051207
  C   -1.19517857733601     -1.02066579175378      0.30491321013080
  C   -0.70249604755197      1.45387688830685      0.35285524095935
  C   2.47997358326462     -0.66062327225807     -0.06137867259549
  H   -0.38534656133367     -1.76760575401020      0.23642249744965
  H   -1.47886570846925     -0.91169758019061      1.36354315150772
  H   -2.05904484886620     -1.43736093750949     -0.24282813759323
  H   -0.98868238280091      1.54229419037047      1.40685521493082
  H   -0.36948275718286      2.36733802307408     -0.14834314055572
  H   2.17044224931267     -0.22353489633539      0.89240363447682
  H   2.58590893313360      0.03580390362494     -0.89908176329579
  H   3.00068620421546     -2.40316650273688     -1.16086787301850
  H   2.59096328748939     -2.66324639333628      0.63738372167425
