16
0 1
  C   2.08812557812117      0.72448315118335      0.07042864719308
  C   0.61728856194107      0.52756076910603      0.31456559027643
  C   -0.08268509226601     -0.76787991952197      0.26246989392230
  C   0.56891707655902     -2.08998992821692     -0.03772746744637
  O   -0.19358211631838      0.17112752402523     -0.82207493440155
  H   2.26034494047081      1.68782842453599     -0.43618223305509
  H   2.51394743272638     -0.06948442813898     -0.55809334646914
  H   2.63201862161160      0.74862048545469      1.02903976090983
  H   0.83956476582153     -2.60223050280700      0.90038678718695
  H   1.47343598062674     -1.97398046615388     -0.65026349239182
  H   -0.13030214978510     -2.74227858569088     -0.58585606846790
  H   -1.77089882895215      1.06659382806999     -0.33221767575207
  H   0.14048912162676      1.29492526219849      0.94011265356151
  H   -3.18991957363419      0.91439573149593      0.21308677986050
  O   -2.36734445746000      1.39601141519502      0.36762334783844
  H   -1.00606786108926     -0.82339276073505      0.85610175723491
