20
0 1
  C   0.61573028047072     -0.15364523896039      0.38142724333060
  C   1.13031553510508      1.05132794887388     -0.12072251390159
  C   2.47716046300012      1.12735720939239     -0.49552676183219
  C   3.32247741279276      0.02416948441912     -0.37226611285923
  C   2.80575043265471     -1.17421928465001      0.13626752046021
  C   1.46678342015484     -1.26578995175754      0.50740799237424
  O   -0.66275474373336     -0.34874923006317      0.80446866511203
  C   -1.72734683717688      0.52879942220178      0.45429491886137
  C   -2.70491893606230     -0.18607344085521     -0.43188875536460
  C   -3.99950074180488     -0.34544368958947     -0.15045833789150
  H   0.50454321496508      1.93914261554279     -0.21502032598310
  H   2.86526655588048      2.07249275828957     -0.88458293312560
  H   4.37204960629890      0.09529351473633     -0.66592358598396
  H   3.45249446667813     -2.04933523146845      0.24207805540175
  H   1.04444532257447     -2.19211894221240      0.90186238802453
  H   -2.21471040124914      0.85742169305094      1.38722076767908
  H   -2.28717160152658     -0.58630042167194     -1.36389743518558
  H   -4.67735741451438     -0.85970434756511     -0.83737878197906
  H   -4.43245598352910      0.03709553696556      0.78033476434302
  H   -1.35080005097866      1.42827959532132     -0.05769677148041
