20
0 1
  C   -0.59362983796967      2.09482551323932      0.42658340812862
  H   -1.43563447085298      1.60952793130587      0.94622089828471
  H   -1.00943511839187      2.62066966862460     -0.44639209391574
  H   -0.10387242347304      2.80537324007282      1.10297243810319
  C   0.39841969346684      1.04909415803316     -0.02197746531242
  O   1.20958293000285     -1.93861689743216     -1.55620147722528
  O   1.53249084457725      0.95601529136763      0.38483188281662
  C   2.25738360894619     -2.46546696125699     -0.74454869786923
  H   2.49205839604167     -3.49476230578345     -1.07643391644478
  H   3.14479634810531     -1.84620204141558     -0.94842853233162
  C   1.92313841148143     -2.44318414921422      0.74000608725730
  H   1.81058080844863     -1.40694407085767      1.09181966369737
  H   2.72667978385947     -2.92118282379958      1.32377590095782
  H   0.98716210090805     -2.99216114439314      0.93836271614661
  O   -0.12435470610020      0.20949915410849     -0.93193814727354
  H   0.56716565342026     -0.47887801377582     -1.19841583943326
  H   -1.28140019964160     -1.38907734173259     -0.62528680386988
  O   -1.36190556780431     -2.35218763442974     -0.75863577530646
  H   -1.99667911942588     -2.43749596262554     -1.48403611578522
  H   0.37048932440153     -2.40494655003541     -1.34494898062478
