14
0 1
  N   0.71686839770402     -1.56388890651175      0.06820731398736
  B   1.49570489819702      1.32036899911123      0.06472207446754
  B   -1.66834925278205     -0.38181771191670     -0.04135868980269
  N   -1.48990827480826      0.99996756502275     -0.17347576472300
  H   0.13485289921408     -2.39575040474673      0.17693482491981
  H   1.34455055469393     -1.53161066102106      0.87283049395418
  H   1.30133220492014     -1.71502580349894     -0.75506629653957
  H   1.33579471541811      1.25181193953869      1.25630020307218
  H   2.28604701811670      0.59523143995188     -0.48332166002198
  H   1.00184868431591      2.22445476819566     -0.55932262679617
  H   -1.82687232832696     -1.05021266081255     -1.03615891197743
  H   -1.83076234397276     -0.84912456323238      1.06158189048156
  H   -1.40140652714823      1.62861230218739      0.61571904826534
  H   -1.39970064554163      1.46698369773247     -1.06759189928711
