10
0 1
  C   1.18125971966678     -0.05709625862181     -0.01097925877305
  O   1.45684999758818      0.06950701596507      1.28215332729545
  C   -0.73635277590673      0.29631778919767     -0.27422299764215
  O   -1.46975022792721     -0.87637911116133     -0.23626932987310
  H   1.59611317178726      0.68844309282303     -0.73158246018238
  H   1.10361967225358     -1.06833198899122     -0.47414227612204
  H   0.24774988339482      0.32797904025550      0.74769762742766
  H   -0.63109206100469      0.64145738754521     -1.31073241506436
  H   -1.58167707088696     -1.15686062201207      0.68279161584915
  H   -1.16672030896503      1.13496365499994      0.32528616708482
