8
0 1
  C   0.95891002827747     -0.52163343780472      0.16639216038866
  O   0.85847074635864      0.45406584679513     -0.69431233667655
  N   -1.03284726203045      0.74852851634841     -0.06801001213685
  H   -1.80451187032594      1.45365850502211     -0.04895219184147
  H   1.61517298536600     -0.35806763172321      1.04844632669517
  H   0.95374949557369     -1.56030481294788     -0.22985028767595
  H   -0.21047723918911     -0.32400920871295      0.64354517076454
  H   -1.33846688403031      0.10776222302312     -0.81725882951756
