14
0 1
  C   -1.79586197233946      0.15680855187691      0.39317233870972
  C   2.03719662144719      0.33092095851683     -0.19043405574241
  C   -2.82222716628838     -0.24274566375711     -0.36257102621379
  C   -0.38318467483267     -0.33705622035829      0.26828566022724
  C   0.59758184988549      0.77659418708949     -0.10833684085683
  H   -3.82875091299506      0.16198589148348     -0.22399684274364
  H   -2.69374782346547     -0.99671916515867     -1.14713422174243
  H   -0.05106604400139     -0.78129516174251      1.22353365245322
  H   0.55789888318832      1.61647547413175      0.61333078390931
  H   -0.32380600329342     -1.14462759600815     -0.47906274016532
  H   0.33311154327552      1.23471993469396     -1.08060673607827
  H   -1.97228104373728      0.91672040122398      1.16741514821464
  H   2.75896865001033      1.13620668439944     -0.49590856142104
  O   2.42506209314632     -0.78580627639110      0.04469044144956
