13
0 1
  C   -1.29767727526999     -0.79236685022667     -0.02565591055259
  C   1.33718980243214     -0.72257867231418      0.04252706060667
  C   -1.22891640538154      0.62307463039061     -0.06359756342841
  C   1.19595694366944      0.68723245563450     -0.00042324750147
  C   -0.02958271645043      1.32841880075710     -0.21160871861797
  H   0.01457818611609     -1.04554586722694      0.50563460319801
  H   -2.18430969195251     -1.22913982324908      0.45346343397404
  H   2.21958806369502     -1.11284671580748      0.56749363034145
  H   -0.99036199148353     -1.36404935712574     -0.90810282016084
  H   1.10643180399420     -1.30817061306552     -0.85402715687449
  H   -2.09393434344901      1.20319770176559      0.28054022445199
  H   2.01033287546637      1.31146061184418      0.38737661118255
  H   -0.05929525138625      2.42131369862365     -0.17362014661895
