10
0 1
  C   1.67568958109957     -0.49782418006203     -0.00334657655769
  O   0.78332839080375      0.51177954167064      0.39387557368941
  C   -2.10476938977913     -0.35786992017883     -0.00315008641502
  O   -1.62300772753166      0.12017336460305     -1.00099726303738
  H   2.41273893516273     -0.64307383746308      0.80302491064711
  H   1.17958160941221     -1.47523831425594     -0.17956095580705
  H   2.23945794009541     -0.24241458672548     -0.92377545279219
  H   -3.14456603167423     -0.76591068971223      0.00712279625765
  H   0.11998816337171      0.61436980003486     -0.30933030514952
  H   -1.52783847096035     -0.40954517791093      0.94949835916466
