11
0 1
  H   1.43970608052127     -1.29260858594726     -0.32371090267245
  C   1.87601145990061     -0.29675438010803     -0.23943031236299
  C   1.14282090150972      0.80217248744230     -0.02688475821611
  H   2.96140748485997     -0.19850223401080     -0.29794829764359
  H   1.60047945432065      1.78620933789724      0.11608929579095
  O   -0.93484608780468     -1.28323727940806      0.48854009828061
  H   -1.25764850698306     -1.00766634622347      1.35843370293689
  O   -0.21284545959495      0.90869400837345      0.04377841087032
  C   -0.99792262672118     -0.19007972795132     -0.36765443157649
  H   -2.01947923572982      0.22185362096452     -0.45199125654143
  H   -0.65395246427854     -0.54769990102858     -1.35381354886570
