9
0 1
  C   -0.92694646961547     -0.03024865225057     -0.00000404061183
  C   0.12376048259271     -0.94610646807496      0.00000401998235
  O   1.73856038010301      0.35323318459638      0.00000713353213
  N   1.13092200111328      1.41984968445806      0.00000000649654
  N   0.00054475706435      1.74439748980376     -0.00000727769764
  H   -1.48090651838009      0.15553667543167      0.92344439781365
  H   -1.48089875170957      0.15552903694480     -0.92345868407952
  H   0.44747854461981     -1.42609171246583      0.92552680721734
  H   0.44748557421197     -1.42609923844332     -0.92551236265302
