16
0 1
  C   1.72981392230478      0.11479618319270      0.34105866558920
  C   0.34349284457621      0.67550494366104      0.37288874330830
  C   -0.78291522912982      0.04317961265752     -0.25439882166170
  C   -0.61883963157771     -1.08400797304567     -1.24772839722891
  O   -1.88097334509133      0.89360184397069     -0.51822157973467
  H   2.17407435565554      0.31356949884404     -0.65181916486414
  H   1.72274787108384     -0.97348966011275      0.49224615681762
  H   2.36991523900369      0.56793561667401      1.10954444216161
  H   -0.35503124920193     -0.71418608123155     -2.26104853727997
  H   -1.56380686344936     -1.64107340351389     -1.34174998524430
  H   0.16172047884738     -1.79889803016086     -0.94810860049505
  H   -1.77594730957483      1.25512418594265     -1.41175007111117
  H   0.25221930581579      1.75281659551912      0.55385295851096
  H   -0.71887392434042      0.80879231074990      2.52434477550517
  O   -0.19336687062834      0.09344668773877      2.12620012834154
  H   -0.86422959429346     -0.30711233088571      1.11468928738549
