13
0 1
  C   1.94383324660736     -0.08199378534908     -0.27849399233011
  C   0.87764698717154      0.62374511406760      0.10847084337408
  H   2.91312074306126      0.39859263632581     -0.43915646276167
  H   1.90097976441911     -1.16250091130995     -0.44285978048836
  H   -0.76103348423705      0.28011339738437      1.41372326678914
  C   -0.52100593374588      0.10573819177395      0.34838579084785
  O   -1.45677784630571      0.91656454623802     -0.35670126192148
  C   -0.72405568972093     -1.37582410220042      0.04587695194836
  H   -0.09031401059498     -2.01267632741677      0.68279325097548
  H   -0.48425829095243     -1.59978831157460     -1.00744527678086
  H   -1.77632838464531     -1.64359028976470      0.22103542628306
  H   -1.22484802533106      0.86788349228147     -1.29497672276188
  H   0.97035492427405      1.70663234954430      0.25921596682641
