53
0 2
  C   -1.76103410210992      0.92740599502730     -1.16508612220028
  C   -0.95040563339193      0.74912965487219      0.09317160688004
  C   -1.65418481883881     -0.27091623352159      1.06363842354291
  C   -1.84277972476461     -1.63164401132094      0.31163664625936
  C   -2.57929409606475     -1.45360023663920     -1.03257234730772
  C   -2.01669320926886     -0.33186742037452     -1.93423814018509
  H   -2.58216316186502     -2.41249276322629     -1.57943044720318
  H   -3.63622289431147     -1.22169678916881     -0.82421113087901
  H   -1.07314995746673     -0.68079091115179     -2.39500199778031
  H   -2.71316532357836     -0.15053815253634     -2.76921375301634
  C   -2.48605568860642      2.19228703862449     -1.49422954787749
  H   -1.82259019147112      3.07579846668189     -1.52007546057139
  H   -2.97874497685558      2.12286299873880     -2.47669950443356
  H   -3.27588191160126      2.43693253411878     -0.75273340857917
  C   -0.57660724418211     -2.53340790880611      0.19424425093392
  C   -0.50418500724410      2.07041233268413      0.73778946327343
  C   0.57603996028650     -2.06023177818523     -0.64816183689756
  H   -0.22973855075016     -2.78578893470455      1.20532787631951
  C   0.69648875332422      2.70041849958990     -0.00610514194855
  C   1.94246471629115      1.84434728958135      0.08352573311906
  H   0.89624700238990      3.69913947329315      0.42181083697093
  C   -0.81121456121455     -0.49461426544423      2.33018806264872
  H   -0.87751156382126      0.36374465044189      3.01499643458420
  H   -1.17222673724137     -1.37620102664662      2.88561895560002
  C   -3.03023679346856      0.26472719614184      1.49953612397459
  H   -2.92350001657524      1.22609460802291      2.02657423304285
  H   -3.70452270568342      0.42924177246471      0.64711272138531
  H   -3.52456822133318     -0.43884503114873      2.18994848264067
  H   -1.33186423222050      2.79618349862206      0.77042775388472
  H   -0.21611968189373      1.90564831593666      1.78545553183812
  H   0.42864994743463      2.85121087753567     -1.06398377648756
  C   2.32428702089680      1.08641171360084     -0.96001734406803
  H   1.72584932238732      1.16824918121396     -1.87717007149945
  C   3.41708571270509      0.05897476002500     -1.02185872688748
  H   4.12724300716636      0.31274686513956     -1.83007324829836
  H   4.00594456548135      0.04449811082119     -0.09260628204888
  C   2.85851781992380     -1.35656325204779     -1.31333729043581
  H   2.38853182900536     -1.35404232233078     -2.31070621896579
  H   3.71135694025569     -2.05914377072446     -1.36674985050525
  C   1.85653204791836     -1.84943599246616     -0.29070963841566
  H   -0.02503655366912      0.22641548546010     -0.19788217317762
  H   0.33983799429531     -1.89290032258308     -1.70402634636117
  C   2.63054494341040      1.85109164640248      1.42448148539398
  H   2.89216757538044      2.88240885557687      1.71903348797846
  H   1.96412177287796      1.46193237941795      2.21360196888005
  H   3.55125045819570      1.25335210408477      1.44014908187721
  C   2.39577045999963     -2.03508656061678      1.10371612562286
  H   3.34420584081322     -2.59940575861081      1.08050324031839
  H   2.62005736999130     -1.06396379440698      1.57643320104865
  H   1.70080575044907     -2.57119771483779      1.76286727682060
  H   -0.93735792365391     -3.48481844818318     -0.24022562786787
  H   -2.52010256509034     -2.22579877182611      0.95218746502360
  H   0.25006523735685     -0.65297413261151      2.09561996403643
