27
-1 1
  C   0.03095324776850      0.94562807684758      0.47010990101963
  C   0.52670746779075      2.08330881673175     -0.33331878736114
  O   0.09192204271201      2.28149543665898      1.00941481735535
  H   0.81595867010167      0.25549829301052      0.82505822390037
  H   -0.16604784243975      2.50947817774556     -1.07849924850427
  C   -1.31910219291564      0.36231626923758      0.24370710862691
  C   -2.48359133913890      1.13751324826302      0.34899760222663
  C   -1.41466982406759     -0.99933643359698     -0.09553395305171
  C   -3.73576261262330      0.56803577378341      0.09987428018961
  H   -2.38589747654817      2.18623610535861      0.64106382039472
  C   -2.67101493745356     -1.55870576838202     -0.34535903682618
  H   -0.48795482100578     -1.59259880116190     -0.15709459476779
  C   -3.83331738837623     -0.78260305321343     -0.25181941416623
  H   -4.64070828691224      1.17844893724276      0.18590507984281
  H   -2.74325018182857     -2.61781718065334     -0.61196094911899
  H   -4.81325065768914     -1.23046318707141     -0.44578539050323
  C   1.99811828384105      2.25182054078307     -0.61646758993303
  H   2.58553781989361      1.53931710682036     -0.01656795939121
  H   2.19977178742863      2.03900235051150     -1.68031489251701
  H   2.31869789434871      3.28938302586376     -0.41147352045267
  O   1.42984772961677     -2.34447941397657     -0.31529996767419
  C   2.48213224818466     -1.75017025345517      0.00964720665419
  O   2.60873724366315     -0.69132657069809      0.67882232094556
  C   3.81530501838822     -2.37613559158756     -0.49552362519515
  H   4.22652046635712     -1.74706131423940     -1.30567315523616
  H   4.56473955185983     -2.38543895954506      0.31393982611860
  H   3.66149707904420     -3.39549064107755     -0.88345209227538
