14
0 1
  N   -2.22819602762225     -0.16980727100525      0.16240851642883
  B   1.26520564030027     -0.15047492972294     -1.02502380171103
  B   1.24613599425639      0.99609198173983      0.51198126778765
  N   0.65039148929501     -0.42579426113696      0.36847565668583
  H   -2.40906032765756      0.76435730262471      0.53498401554494
  H   -2.95577453619301     -0.78260626043122      0.53413775786355
  H   -2.37749725866575     -0.11017209339095     -0.84679645626838
  H   2.26381956806189     -0.78114693297360     -1.28046792703967
  H   0.44880604441088      0.05293875034191     -1.89522357516183
  H   1.74347898491904      1.09033790519248     -0.74812413764933
  H   2.23226237837039      1.07388411940033      1.20586292401660
  H   0.41753829668876      1.87748892643775      0.55272800162045
  H   -0.38666727803731     -0.47664689182593      0.39452464469391
  H   1.09498803187321     -1.15502234525019      0.91764011318848
