16
0 1
  C   -1.60487473977116     -1.72612636839725      0.56678417871611
  C   -0.84039451641922     -0.97270171565993     -0.30633744420424
  C   -1.02180489971194      0.49613955793971     -0.14067603259812
  C   0.07125836821243      1.10766953160330      0.62359143543838
  C   1.33700753211596      0.35680520921572      0.12386286715414
  C   1.83301516955615      0.83947518063949     -1.07628421374632
  H   -0.68705925451430     -1.37267146173127     -1.32021090202001
  H   -1.86668066508782     -1.33047999827312      1.55219193643890
  H   -2.03706105086427     -2.69259060020777      0.28638423204660
  H   0.58953684919817     -0.77115409695577     -0.02510858731923
  H   2.06808314511708     -0.02264884543823      0.85627825455468
  H   2.81713297073971      0.55208929246298     -1.45792356748174
  H   1.21183573993335      1.48222111343388     -1.70669818847224
  H   0.13296599211933      2.20759936656685      0.52345602556607
  H   0.01364294515898      0.89902674299171      1.71643347053990
  H   -2.01660358578244      0.94734709180970     -0.21574346461286
