17
0 1
  C   -0.04244628109593      0.39792275584195     -1.88986990759498
  C   0.32809457377595      0.41820958414590     -0.47875546136275
  C   1.30261251611163      0.68877218233391      0.36274206669548
  C   1.34911359126654      0.36703341184317      1.84495944720486
  O   2.54076378903538     -0.28735611718829      2.20481654793091
  Cl  -4.18017602332111     -2.95953649594242     -1.20855189608600
  S   -2.37394930093147     -1.65752910086649     -0.59046285831529
  O   -1.20884189014237     -0.89061985523458      0.45798105450427
  Cl  -3.48342094431317      0.13169040179605     -0.81119565118690
  H   -0.64744937806398      1.27457733505309     -2.17199172293431
  H   -0.66328082002823     -0.49968373514888     -2.10405431488264
  H   0.85337863213116      0.32894311501539     -2.53090649907364
  H   -0.94138309733819      0.11209915902239      0.27289478859655
  H   2.17956140214592      1.22472249107774     -0.04308391609707
  H   1.20250110723505      1.30881112767415      2.41346293358433
  H   0.51695978809863     -0.30649133415060      2.09228543519440
  H   3.26796233543420      0.34843507472751      2.17972995382282
