10
0 1
  C   -0.56460523374714     -0.32246912115878      1.18199906787790
  O   1.16783380655193     -1.54543536549235      0.01433263747385
  C   0.73262301730840     -0.47298478671698      0.37521571060504
  F   -0.98295879962352      0.78660317908081      1.66299797065568
  F   -1.51614900065309     -1.15107205700516      0.98134765893413
  C   0.00469312665753      0.39775549986793     -0.99839088759465
  F   1.56969369639790      0.53082210226265      0.87962358918735
  F   1.02202642795076      0.52163782477695     -1.81985938838503
  F   -0.94287445356892     -0.34981566705934     -1.55198845316698
  F   -0.49028258727384      1.60495839144425     -0.72527790558726
