7
0 1
  C   -2.33121601384444      3.31344616852140      0.20117658008400
  C   -0.91454997788663      2.86358244159970     -0.04211613257343
  O   0.06216206155490      3.55554960413794      0.09166374564940
  H   -2.92731201705146      3.17987287748633     -0.71841030419570
  H   -2.79574441184663      2.67518976041077      0.97305317181896
  H   -0.81552764445403      1.79253933480900     -0.37114119171044
  H   -2.35331099647170      4.36601982303485      0.51667413092720
