53
0 2
  C   -1.82219329405456      0.76593612629429     -1.17801255979065
  C   -1.12747670496115      0.69771288291980      0.05853947973066
  C   -1.68832289506769     -0.30765900762094      1.11388701139345
  C   -1.89846408288450     -1.67681157202199      0.41114908602850
  C   -2.86026396204658     -1.54600774408111     -0.77581708137382
  C   -2.44122475958079     -0.46906288907449     -1.78131393003920
  H   -2.95658817873505     -2.52008779514572     -1.28393411032631
  H   -3.86399780715960     -1.30661400826742     -0.39207916847166
  H   -1.72179681193252     -0.89954401072774     -2.50972315483757
  H   -3.30958879816723     -0.17897649636112     -2.39935492503022
  C   -1.74233421094924      1.94270299968626     -2.10762291344164
  H   -1.70100165806398      2.90861736828911     -1.58298760319413
  H   -0.85160052252363      1.89752857775857     -2.76832152904302
  H   -2.61880585326506      1.96428031196426     -2.77656309131009
  C   -0.55502397651706     -2.35182767897974      0.04437986320182
  C   -0.58601796805868      2.01047980898555      0.64419220449632
  C   0.49491248040550     -1.48399454243276     -0.64680259561942
  H   -0.12471097603965     -2.77956107189252      0.96018941598308
  C   0.64771158231549      2.66560768510375     -0.01913190518444
  C   1.90067508018176      1.83072767472081      0.06496611328192
  H   0.81111146681509      3.63360507814365      0.49028521614061
  C   -0.73655145039591     -0.50628591612892      2.31137301645684
  H   -0.74912173368788      0.35695483007277      2.99278081873451
  H   -1.05470504276646     -1.38235716880662      2.89931324911310
  C   -3.02255306218107      0.23216589319226      1.67013887175778
  H   -2.85898175039455      1.17685679221708      2.21219134826365
  H   -3.74837642978491      0.43565991833240      0.87089576917373
  H   -3.47230806763048     -0.48456141471080      2.37819405124082
  H   -1.40368163682959      2.75294022459540      0.63073466080354
  H   -0.35330792787875      1.86519015200614      1.70672420628484
  H   0.43917087253997      2.89684585857925     -1.07171114355520
  C   2.40048700620738      1.26242780732404     -1.04482121395701
  H   1.88007426003328      1.47183810766629     -1.98877670060813
  C   3.48221675941771      0.23260700248314     -1.14391536720242
  H   4.19137213482574      0.48671218774113     -1.95198341029977
  H   4.07054813557195      0.17320338948027     -0.21563997461476
  C   2.86142325684597     -1.15801915814990     -1.45800533941203
  H   2.36428645036405     -1.09786824204801     -2.44133160553189
  H   3.68723156210088     -1.88710721149782     -1.56361670299763
  C   1.87982135687421     -1.64785754066254     -0.42562740315495
  H   0.02664507217335     -0.19054385856518     -0.26241977583475
  H   0.26495107946957     -1.29255829977675     -1.70389018404724
  C   2.47406240012928      1.65058286954261      1.44647129427808
  H   2.58059247741789      2.62772680777800      1.94859882203582
  H   1.80614321276586      1.04428369137764      2.08085303174271
  H   3.45882124278306      1.16522345486713      1.44170056215452
  C   2.46816207217226     -2.10018608913499      0.87891084536686
  H   3.32720268424172     -2.77448219604680      0.71236758744745
  H   2.85898959497065     -1.24764886285066      1.46830981828484
  H   1.74892345800264     -2.62739356974923      1.52101782505782
  H   -0.77601052257676     -3.21544991054626     -0.60898170935033
  H   -2.38357230588846     -2.34571502468581      1.14401518732699
  H   0.30304669139657     -0.67023622115579      2.00020574244804
