20
0 1
  C   0.43984526338887     -0.27242119743733      0.49529430191252
  C   0.81677261373795      0.84582437607161     -0.26532582497628
  C   2.15410889258183      1.00202667629136     -0.65064736497067
  C   3.12009162911661      0.06146880442547     -0.29368377012263
  C   2.73726854571396     -1.05361110213761      0.46376564975035
  C   1.41205199939679     -1.22229020373155      0.85511677236912
  O   -0.82110214680531     -0.52426425530194      0.93652599102097
  C   -1.88432268668562      0.36249602397224      0.61412083934125
  C   -2.41069378982279      0.15637031725682     -0.77925049670876
  C   -3.69569753581193     -0.06709616523750     -1.06302263724700
  H   0.08606941455709      1.59600192720704     -0.56714705218398
  H   2.43529152728376      1.87659464913088     -1.24338556854840
  H   4.15987077482084      0.19103496732651     -0.60193645512886
  H   3.48098580300219     -1.80054788251488      0.75344674442586
  H   1.09485325968639     -2.08372732974562      1.44619618212113
  H   -2.67450144276576      0.15591193253158      1.35114029937175
  H   -1.67376398534211      0.20469445141125     -1.58947343232670
  H   -4.04272199977965     -0.19116893763104     -2.09271677976143
  H   -4.45373322474285     -0.13068693531032     -0.27435098087541
  H   -1.56070991153026      1.41011588342302      0.76373058253720
