20
0 1
  C   -1.61979731051497      1.05922709306218      0.64424650398693
  P   -0.96526497474473      0.32116578808019     -0.93541642737644
  C   0.85075539609674      0.63415346203368     -0.69420422964078
  C   -1.01973086370178     -1.48013006496004     -0.48175010623904
  H   -1.09072396309119      0.67913903400628      1.53521632101099
  H   -1.51674684795304      2.15568571593656      0.61216949461956
  H   -2.69219234746457      0.82666924624175      0.74344133909722
  H   -0.53529914058706     -1.68210856394553      0.48896568374295
  H   -2.06575435624310     -1.82185685734656     -0.43365495343194
  H   -0.50140427740304     -2.04703214639737     -1.26903462250819
  H   1.20627993842467      0.29188497157662      0.29268320842475
  H   1.06171724059385      1.71100484591771     -0.79243184781844
  H   1.39884488003317      0.09606685145810     -1.48169720373809
  H   -1.80585616032139     -0.85832799320661     -3.64729580285744
  C   -0.91607496152470     -1.03355968646343     -4.26594480370501
  C   0.08520818907485      0.03409456068405     -4.37453706159060
  H   -1.02901607057923     -1.76294468494288     -5.07926293008406
  H   0.71915148958790      0.10142052927931     -5.26875537425571
  H   -0.08758063112008      0.97418339718038     -3.83450415712070
  O   0.31192077143771     -1.10312749819439     -3.54900803051595
