22
0 1
  C   3.37054730223711     -1.12881554157768     -0.06225701111021
  C   2.32653037356054     -0.05989041428754      0.21294286249299
  N   1.05732297546693     -0.36907527137727     -0.16735275256260
  C   -0.05199305490614      0.52187521303106      0.07699147397850
  C   -1.33388408124984     -0.31729579748195     -0.02264636515430
  N   -2.45681741303624      0.29623061434855      0.43402385344858
  C   -3.76905087698623     -0.31288423141645      0.37124381178780
  O   2.60874407328419      1.00590935399148      0.74186807731363
  C   -0.08028854762134      1.70300079410045     -0.90772039441185
  O   -1.32584571637257     -1.44002896483376     -0.50776531982904
  H   4.17811668374077     -0.68515611113778     -0.66385671956972
  H   2.97199314504057     -2.01235445571398     -0.58189257771492
  H   3.81494358345699     -1.44088225179920      0.89556215258261
  H   0.80400219884344     -1.27600339468693     -0.55074938882616
  H   0.04354531440343      0.92896532531693      1.09984575744361
  H   -2.36567708590855      1.21722992199868      0.84488529408033
  H   -4.46602273549308      0.29101011009765     -0.23407692905224
  H   -4.20104349048655     -0.44526058457588      1.37747502816457
  H   -3.65486815892793     -1.29912502638567     -0.09698440341531
  H   -0.90553551150862      2.39746999151735     -0.68436823415702
  H   -0.20086269406476      1.33686584379873     -1.93908842429906
  H   0.86749373652784      2.25316689707326     -0.82677479119016
