13
0 1
  C   1.66251480373681      0.24466047093697      0.06571642503465
  C   0.28328629268714      0.72552023974784      0.39514319306005
  H   1.86771339643030      0.27184017174253     -1.02388561193513
  H   1.84527570970887     -0.80282885798328      0.38086226959786
  H   2.42034250332228      0.86270698324802      0.56850821105497
  C   -0.88440009656644      0.08552691888337     -0.12284199704855
  O   -2.09401466731556      0.68180064657455      0.03767777740479
  C   -0.91497170754158     -1.22514175981702     -0.67191287864554
  H   0.00951014002687     -1.73707847772949     -0.92699881356247
  H   -1.88180431384418     -1.67143047117049     -0.89697340608400
  H   -0.49146331170846     -0.64427877211516      0.81538591279338
  H   -1.95531994477396      1.55933855179398      0.41963882565955
  H   0.13333119583790      1.64936435588817      0.95968009267045
