16
0 1
  C   2.18657353896299      0.68637185171002     -0.97089588739371
  C   0.89899279759463      1.08336455579337     -0.29045502309440
  C   -0.07742416316525      0.16777398886418      0.17655753033722
  C   -0.31709918950271     -1.25675867888594     -0.18120833565068
  O   -0.77298749169326      0.72751401829741      1.12153912264546
  H   2.03265194806752      0.33765383525712     -2.01055354381842
  H   2.70456284623589     -0.11983622053112     -0.42606802806681
  H   2.87884764312974      1.54123312564596     -1.02061921441184
  H   0.25907283116542     -1.90055359600057      0.50706176251161
  H   -0.00488997582944     -1.48572341721343     -1.20934280001507
  H   -1.38539037851946     -1.47443151998184     -0.01936188775376
  H   0.22205999956092      1.54798622515276      0.97014082188673
  H   0.40472656156839      1.98220633525492     -0.69540309557281
  H   -2.56420372918668      0.00870320872091      1.16225739067167
  O   -3.26263940645741     -0.66160056339472      1.03731805128395
  H   -3.20285383193129     -1.18390314868904      1.84903313644087
