10
0 1
  C   1.24095990591836     -0.55418617839335      0.04195777804039
  O   1.25085461537005     -0.76564294124569      1.31981418532617
  C   -1.11442918433374      0.65281153644980     -0.28397020109058
  O   -0.44555392074603     -0.57861599966402     -0.04451475041756
  H   1.50353073831095      0.45208629751977     -0.36453974327124
  H   1.51304377743916     -1.36715537621648     -0.66655598650607
  H   -0.65650022054256      1.47908059191538      0.29030842742179
  H   -1.08029593810225      0.88904325401008     -1.35851462894422
  H   -0.04398377053174     -0.75105443222268      1.04872359782957
  H   -2.16762600278221      0.54363324784720      0.01729132161178
