12
0 1
  N   1.73557943334292     -0.26035031913012      0.36716252620934
  B   2.04875733107334      0.67409407262971     -0.60856673718848
  N   -1.43806244614094      0.38285205378047      0.31853881360167
  B   -2.10813295519671     -0.83408322791574      0.21682760651224
  H   -1.51554057073625      0.99566139172591      1.12355919712381
  H   3.19500750407655      0.82673769342308     -0.95627774739320
  H   1.15706082432740      1.33168949590766     -1.10044244237736
  H   -2.77588487930190     -1.21797008942457      1.14744016812403
  H   2.42881056459904     -0.84665129313481      0.81822360743015
  H   -0.88698153122900      0.78343194908755     -0.43554553569293
  H   -1.99186551557400     -1.48184435914710     -0.79525868174026
  H   0.78387724075956     -0.42075936780203      0.68550722539099
