13
0 1
  C   -0.64833957118468     -1.09980282862691      0.53302154500680
  H   -1.58300075317102     -1.32544180052190      1.05941553034247
  C   0.26807584501475     -0.33922235659862      1.15906144153705
  H   1.23653172262293     -0.10957747072002      0.70443877500635
  H   0.07891493776327      0.07157082251094      2.15364552304468
  C   -0.53066229078525     -1.66133251318687     -0.81853408533170
  C   0.23695316669791     -1.17491432668489     -1.80639793154848
  H   0.84963712267450     -0.27765944370917     -1.67634036296244
  H   -1.16036683288398     -2.53429655561143     -1.02511176487244
  H   0.27069800167760     -1.65745463760311     -2.78634641681792
  S   -1.28120181976473      1.79453864403203     -0.42853358293738
  O   -2.68783099369493      1.39088111403245     -0.34835514288698
  O   -0.80351129496639      2.79763462268749      0.52861993242001
