11
0 1
  C   1.92784594838914     -0.15004860384095     -0.13040424061709
  C   0.68075435204860      0.32605630612406      0.03785816407532
  N   -0.48459893346867     -0.40706159964986      0.14888655396428
  C   -1.75983102486192      0.16860934558512     -0.21600123497574
  H   0.52211118741361      1.40702998738294      0.14456291863991
  H   2.78079773163525      0.52960216717395     -0.12764045095541
  H   -0.38594690879185     -1.39687056909376     -0.05569442537626
  H   2.12875973197858     -1.21976443307921     -0.24715930403968
  H   -2.58035947826083     -0.44687286764441      0.18502396797945
  H   -1.85460500253158      1.17145598265224      0.23154092644465
  H   -1.91422860355035      0.27657328438991     -1.31020687513943
