9
0 1
  C   -1.17430471027269     -0.19799115846883     -0.00000026614801
  C   0.00280682113874     -1.18354838371672     -0.00000019441852
  O   1.14929224823193     -0.31331888103573      0.00000046511378
  N   0.70888773197186      1.01676803889787      0.00000058557496
  N   -0.51017081738584      1.12084340934417     -0.00000070878232
  H   -1.82090207394412     -0.26058444824075      0.88890419813540
  H   -1.82090330147070     -0.26058516099764     -0.88890367726476
  H   0.04031182024332     -1.81976177231050      0.89769456448630
  H   0.04031228148747     -1.81976164347188     -0.89769496669681
