17
0 1
  C   0.34560081727046      1.10868401913172     -2.02365188950893
  C   0.26975627175329      0.27387205397537     -0.77763674802303
  C   0.79525572244583      0.73504405939783      0.46149499493309
  C   0.90886499132524     -0.18084804112484      1.61392781192153
  O   1.31335789448611     -1.49042376278850      1.29488613288420
  Cl  -1.73721771681826     -2.34886799220421     -0.37556770543041
  S   -2.24041415905539     -0.57806108246918      0.65495043865322
  O   -1.25977227672199      0.46147004443499     -0.22772866337735
  Cl  -4.32359858685005     -1.45664414081560      1.30675035694346
  H   -0.40782315185997      0.76608427314230     -2.74737200807602
  H   1.34079000502651      1.00587535589461     -2.48649464106692
  H   0.16680349797564      2.17147431268777     -1.80265228929265
  H   0.35593424415997     -0.80685768990541     -0.93568752650097
  H   0.87599738022148      1.81370537793690      0.63110225767334
  H   1.50837170874227      0.27519306761215      2.42602040549731
  H   -0.13052835917498     -0.29540204903489      2.03054505984750
  H   2.21862171707382     -1.45429780587099      0.95711401292266
