16
0 1
  C   2.01941430090698     -1.13335696310904      0.11756543054908
  C   1.89774481382909      0.18402380143563      0.35370959141274
  C   0.86602013819262      1.09346203636640     -0.15547380083022
  C   -0.42631797622971      0.82394331512803     -0.42903099747883
  C   -1.15917546025768     -0.47426604995730     -0.24625290714199
  C   -2.60835886589270     -0.27541284673637      0.20904478319297
  H   2.66751180124613      0.66262548961817      0.97352715173310
  H   1.33623768386619     -1.67374282904796     -0.54185386578364
  H   2.83813298668443     -1.70858081746072      0.55890685227311
  H   -1.15533655471371     -1.03445532105083     -1.20189531726989
  H   -0.61655552543004     -1.11154430078302      0.47158837837891
  H   -2.65005566861753      0.24319565520861      1.18082059405978
  H   -3.12915625885158     -1.23972796072567      0.31812798178218
  H   -1.03645460456980      1.65603124366038     -0.80398590929424
  H   -3.17621610740282      0.33208903440178     -0.51562309702020
  H   1.19587829724011      2.13047551305189     -0.29260886856284
