17
0 1
  C   0.71885272760508      1.02183982399448     -0.08517872611230
  C   0.52189292614472      0.24825189776914      1.18273966680344
  C   0.99542878559077      0.60620257971682      2.38153459287079
  C   0.79600440113384     -0.15346312247010      3.66229647585148
  O   0.31995840874608     -1.47898886900408      3.50031607236375
  Cl  -1.54905685029515     -2.99259837827198      1.48479619661192
  S   -2.23794138517829     -1.84999619756799      3.23951934447691
  O   -2.37825242666304     -0.44623168197773      2.87078225573807
  Cl  -4.24491448705870     -2.67664373017174      3.25083686994929
  H   -0.25380171275138      1.32409149414356     -0.51182375412392
  H   1.21792585044655      0.40771036951127     -0.85553700246329
  H   1.32162172581311      1.92927180652838      0.07486564654427
  H   -0.07612209512849     -0.66580882121032      1.09791811923607
  H   1.57438441244619      1.53363777703031      2.48049233502366
  H   1.74070129643076     -0.15536341277260      4.24295484870055
  H   0.04798964601903      0.36202289358456      4.29195440630575
  H   0.77408077669894     -1.88728742883201      2.74795265222353
