22
0 1
  H   -1.73108796469351      0.08170009635270      1.88526383254369
  C   -1.91711590635206      0.03626297574520      0.80177361239034
  C   -1.66401695341729      1.31339742718690      0.04964466925288
  C   -1.17365538494818      1.00328257273758     -1.19418375368631
  C   -0.83967875297808     -0.37967211349701     -1.25318837796864
  C   -1.03705911496341     -0.94213948995407      0.03589786366514
  H   -2.97702492181778     -0.26326633745481      0.66778244358683
  C   0.66808584486771     -0.72586996095538      0.99687912974995
  H   -1.98011605889885      2.30067949748801      0.38908565408668
  H   -0.99362958177124      1.71889734925875     -1.99903106966973
  H   -0.48530213085304     -0.90950307020248     -2.13591429713615
  C   1.64348231215205     -1.27183549638611     -0.03664747867489
  H   -1.17419306169343     -2.02005783754963      0.16496426053879
  H   2.56471494713222     -1.60072424482473      0.48690534202998
  H   0.43767777228025     -1.30816133998595      1.89397104472232
  C   0.90564950933192      0.67225548271104      1.07245172962187
  C   1.63144390870741      1.06620232610418     -0.08728094072689
  H   0.58037186284270      1.33546468226295      1.87240780012293
  H   1.83966235228145      2.10137196749127     -0.36539497664448
  C   1.94469210464468     -0.03750480302123     -0.84070328415484
  H   1.27723368879104     -2.13394432067744     -0.61367579057926
  H   2.47986552935548     -0.03683536282972     -1.79100741307022
