11
0 1
  C   1.87159492420157     -0.12067198707241      0.03532961256160
  C   0.53494296926188      0.50004365452862      0.29536104585478
  N   -0.44089834291115     -0.20068617347975     -0.21218799145797
  C   -1.84982173311459      0.15559716886302     -0.12028999291363
  H   -0.26417958881355     -1.08281163940451     -0.72869500570041
  H   2.37814647845250     -0.30297174043874      0.99896035741447
  H   1.85986675177952     -1.07396063136535     -0.54664152337667
  H   2.51098770720236      0.60698176843818     -0.49418965541237
  H   -2.28465365702635      0.28798794453463     -1.12530781201959
  H   -2.41848934424128     -0.63165959611670      0.40280475863255
  H   -1.92327616479090      1.09637023151301      0.43945820641721
