37

  C     -0.479764    0.988108    0.766651
  O     -0.235587    2.114475    1.354431
  Mg     1.688925    2.175911    1.154901
  Br     3.451774    3.577034    1.904649
  C      1.574276    0.410713   -0.134734
  C      2.088865   -0.850444    0.217951
  C      1.825365    0.871200   -1.446228
  C      2.841580   -1.610661   -0.683944
  H      1.887611   -1.262370    1.212542
  C      2.588349    0.129244   -2.351918
  H      1.396286    1.822709   -1.787686
  C      3.092027   -1.119617   -1.970149
  H      3.227912   -2.590164   -0.388658
  H      2.777260    0.513726   -3.357979
  H      3.673560   -1.714439   -2.679750
  C     -1.223137    1.048985   -0.534690
  C     -1.196272    0.027524   -1.501587
  C     -1.992491    2.196852   -0.779171
  C     -1.937185    0.147928   -2.674752
  H     -0.555537   -0.842193   -1.353021
  C     -2.740235    2.313036   -1.954435
  H     -2.000556    2.988148   -0.028040
  C     -2.716575    1.289418   -2.903511
  H     -1.895891   -0.646486   -3.424267
  H     -3.341632    3.208856   -2.127799
  H     -3.295570    1.380937   -3.825914
  C     -0.624710   -0.224447    1.642066
  C     -1.426113   -1.326062    1.300262
  C      0.030547   -0.238887    2.887028
  C     -1.535739   -2.422527    2.159214
  H     -1.987434   -1.324907    0.367678
  C     -0.073953   -1.332575    3.743138
  H      0.623331    0.624654    3.197420
  C     -0.854075   -2.436156    3.377741
  H     -2.166473   -3.267957    1.873724
  H      0.449562   -1.323563    4.701895
  H     -0.938303   -3.296002    4.046942
