14
0 1
  N   1.49626432106562     -0.61953441384001     -0.06748557966534
  B   2.06562325159618      0.64654824816227     -0.10135725855565
  B   -2.29955081726072     -0.29475938083921      1.13666020550193
  N   -1.55356336937964      0.38025039028148      0.17272345866125
  H   0.51355409676750     -0.77217292449252      0.14309969146687
  H   2.02171508639773     -1.47159668997240     -0.22945591548689
  H   0.01550218024819     -0.67219131178575     -2.45019775830007
  H   3.24105709359577      0.77352598212531     -0.34536568037218
  H   -0.39497318900360     -0.84992780534613     -3.06692727415236
  H   1.36297121320344      1.61022696154329      0.11187319947310
  H   -3.09294469366260     -1.13432028230483      0.78342327346155
  H   -2.12288301560387     -0.03380229828381      2.30210955153303
  H   -0.89547558311810      1.12231637453980      0.39231676525796
  H   -1.67284657484591      0.23927415021255     -0.82517567882323
