6
0 1
  C   0.58882874859063      0.38598488942370     -0.00000092054300
  H   0.09331541102301      1.39018478420362     -0.00001030275532
  H   1.70868403325802      0.40238667475471      0.00000909849709
  O   -0.03660113941198     -0.63978398471326     -0.00000131938284
  H   -2.29442381365327      0.20854232316009     -0.00000772808691
  H   -2.89264323980639      0.68220031317111      0.00001117227099
