5
0 1
  Si  -0.00000419097121      0.00009713905244      0.00004389212242
  H   0.64703101515441     -1.34185739029516     -0.06513164005174
  H   1.05090263380810      1.05612188007925      0.06312837726755
  H   -0.83959336989596      0.20631502250800     -1.21493422008985
  H   -0.85833607809533      0.07932334865547      1.21689359075162
