8
0 1
  H   -0.10115678291176     -1.01819672316280     -1.08503101801624
  C   0.32321395109317     -0.36475757753876     -0.31774976872194
  H   1.40529621987299     -0.45962316115566     -0.19331756534606
  C   -0.28840123356700      0.91898561324613     -0.08777441508720
  H   0.07281661066576     -1.49470785939660      0.81422679607786
  H   -0.31656693669744     -0.33976033297068      0.74497755211317
  H   0.22432558445911      1.66479319984566      0.52022607024047
  H   -1.31952741291482      1.09326684113272     -0.39555765126004
