27
-1 1
  C   0.39599100659751      0.42026368872825      0.20109867593950
  C   0.62852291741089      1.84530435175646     -0.48067872488897
  O   -0.03683595776520      2.77776710821778      0.16988962364986
  H   0.67319671330564      0.55933541674870      1.25587149097731
  H   0.32757330514943      1.66861637874571     -1.57408888022313
  C   -1.02554996068479     -0.05997216024139      0.08563346737791
  C   -2.06669603408800      0.82284540131720      0.44363952419271
  C   -1.36106823117956     -1.34146639027396     -0.37817130627085
  C   -3.39814990089806      0.42005915934437      0.33280213456274
  H   -1.74689267590642      1.83479636521150      0.72252806789438
  C   -2.69835962741072     -1.74525284260365     -0.46957862043357
  H   -0.56437232137769     -2.02736798023811     -0.67094568486727
  C   -3.72545278744194     -0.86774677649352     -0.11225017297263
  H   -4.19622558581620      1.12161925616548      0.59850284820324
  H   -2.93675282279390     -2.75284020855301     -0.82618947863953
  H   -4.77193297075281     -1.18279374996137     -0.18192621512160
  C   2.16542930867093      2.10359821106313     -0.52942679562583
  H   2.58137873129333      2.08026417447518      0.49325435627084
  H   2.72708764169721      1.39612417279666     -1.16963602385986
  H   2.30745249636115      3.12409452602944     -0.92165496984104
  O   1.27326112743970     -0.59979144828211     -0.36526633997976
  C   2.27090970513918     -1.10311185784106      0.35522395270714
  O   2.47551299119508     -0.90131606593287      1.53193981911224
  C   3.16987049472636     -1.96302704862346     -0.51504607231635
  H   3.79917025725921     -1.30156852335366     -1.13365231170163
  H   3.81687993733067     -2.58339472961354      0.11938812651457
  H   2.57793123253897     -2.58918343858818     -1.19886448066042
