16
0 1
  C   -1.02270817005151     -1.30952963485722      0.29179639107253
  C   -1.52576561097888     -0.49384267891554     -0.65039583036230
  C   -1.83534454924658      0.93503184747405     -0.49467718244998
  C   -1.33772553868450      1.75701821795060      0.44355406612825
  C   2.58521446440828     -0.67268518132120      0.07525786017667
  C   1.83520535265853      0.43073097550383      0.64814300011816
  H   -1.75419544271682     -0.91884721486500     -1.63576084325907
  H   -0.80601031454675     -0.96013393169854      1.30527374920023
  H   -0.82269601808166     -2.36300636323195      0.07600933953052
  H   3.14862638805093     -0.55996009622006     -0.87201505517066
  H   3.09350374709862     -1.34608618641825      0.78506640844519
  H   1.61694725924749     -1.19165645111908     -0.19696666216922
  H   1.59313366335264      1.11897534574820     -0.19748147698478
  H   -1.64019234470618      2.80715332651849      0.48247241412772
  H   -0.59640197544045      1.42159068740181      1.17615205566263
  H   -2.53159091036315      1.34524733804987     -1.23642823406590
