14
0 1
  N   1.27504990023343     -0.49916387252576      0.59455478102242
  B   1.58803379177007      0.21552864719899     -0.84884875793917
  B   -1.91376448594128      0.14825054246751     -0.53451414849323
  N   -1.77856172409976      0.23101150169273      0.86395076833628
  H   0.31431793264166     -0.26197797690864      0.88045734969612
  H   1.92335550301289     -0.19096971627105      1.32163404721626
  H   1.34033943032460     -1.51722566462582      0.52643582942675
  H   1.56025900965630      1.41954306569179     -0.62855116417129
  H   2.68645422311646     -0.19344472852224     -1.20201291465242
  H   0.68173574452909     -0.15351392148615     -1.58761390050511
  H   -1.82539045223210      1.15152247442261     -1.19002374863022
  H   -2.13883450333686     -0.93099592143678     -1.02392232109460
  H   -2.00845025534414     -0.54019887473566      1.48251247157806
  H   -1.70454411433034      1.12163444503847      1.34594170821016
