8
0 1
  H   0.03988268893892     -0.07439866157674     -0.02712210462153
  C   0.01846360454808     -0.03712906132438      1.07464005716126
  H   1.06307140476405     -0.07724773597764      1.42506661137141
  C   -0.69419096340752      1.21585659372920      1.57983446167989
  H   -0.48123426504611     -0.95536111898985      1.42552022752276
  H   -0.71558783361924      1.25313845652410      2.68159663788868
  H   -0.19450919358503      2.13408948131421      1.22893392246421
  H   -1.73880645259313      1.25596204630117      1.22942918653333
