15
0 1
  C   -1.39595709364414      0.32760183752831      0.22838680193153
  C   0.07260685571999     -0.11680191657143      0.20160410573765
  H   -1.74024045745530      0.65123866939359     -0.76705590903824
  H   -2.03601417737575     -0.50088264264377      0.56852383020242
  C   0.98475491706910      1.04525111926211     -0.21406488226431
  H   0.74604013374204      1.40691477766500     -1.22716270634232
  H   2.03810951468346      0.72627824816597     -0.19385892115344
  H   0.87132289692013      1.89617403397747      0.47989481294313
  C   0.25909739777461     -1.31327277310697     -0.73143195505071
  H   -0.37040820382020     -2.15290376672545     -0.39932091214732
  H   1.30809081757845     -1.64613047469042     -0.71421706959066
  H   -0.01279320319213     -1.05544954313058     -1.76651390813757
  O   0.45598963544879     -0.58791074225530      1.49567682367140
  H   0.35379853893318      0.14491346665833      2.11753849658360
  H   -1.53439767238221      1.17497980647316      0.92200150265487
