13
0 1
  C   1.76423512178705      0.18960772407771     -0.04047669979921
  C   0.43326343437462      0.81721839212454      0.16468145664634
  H   2.46907471690275      0.87978760646238     -0.54161975283550
  H   1.69302511387537     -0.74325673323367     -0.62388599186844
  H   2.24110432553180     -0.07332090466761      0.92465102336224
  C   -0.81127570590684      0.20337343034118     -0.17236195230341
  O   -1.86737686298149      1.10348360264989     -0.35905220009478
  C   -1.13910170793829     -1.15600769105923      0.34427423484067
  H   -0.47907598184978     -0.28186851066691     -1.15457426613157
  H   -1.56981050722883     -1.87478116876272     -0.36211340861696
  H   -0.50235634797941     -1.58348969405954      1.12577919633462
  H   -2.62587409936657      0.69810983933416      0.09069813154667
  H   0.39416850077963      1.82114410745982      0.60400022891935
