11
0 1
  H   0.47164250775183      0.98483688472378     -0.37845075053848
  C   0.23171749759290      1.08926104491854      0.68266283054098
  C   0.64247159141133      0.18229232985106      1.57557931604723
  H   -0.34717125179292      1.95329087717827      1.01128667217194
  H   0.40379761205582      0.29397433113266      2.64326111878959
  O   1.36249694175728     -0.91738616752240      1.25318860573391
  H   1.55298796348490     -1.42063532382252      2.06663753885431
  O   1.20141606890202     -2.67303707242048      3.36248898990746
  C   0.36408043318531     -3.38807141440404      2.86690162097820
  H   -0.05010095694680     -4.26684813605597      3.41553562090010
  H   -0.03121240740170     -3.20289535357886      1.84100943661470
