10
0 1
  C   1.14730129139820     -0.44224979007645     -0.10165663249395
  O   1.05879044607176      0.74159725607401      0.42411825061759
  C   -1.05652359100703      0.78044353839428     -0.09652760958842
  O   -0.23596222104257     -1.05167044592045      0.02984172861404
  H   1.82533657276272     -1.16834797207172      0.41318142228000
  H   1.30572667868849     -0.52959172107562     -1.20736679379364
  H   -0.97678474735940      1.46766777618656      0.74332791430470
  H   -0.73263187151803      1.17864166135225     -1.05736098397551
  H   -0.35802152994947     -1.16932800802295      0.98860472704735
  H   -1.97723102804468      0.19283770516007     -0.13616202301215
