17
0 1
  C   2.43176237518189     -0.48150137329159     -0.30142385752301
  C   -1.21077219732457     -1.24884255861429      0.42249731303666
  C   -1.42141214467009     -0.85257058615784     -0.85463108623019
  C   -1.23791659461533      0.60302523641937     -0.94621315229967
  C   -0.91784136687364      1.08887710668765      0.27594966324986
  C   2.70762932192707      0.79145839624384     -0.01365533459764
  H   -1.27155135280621     -2.26726683764835      0.80836588158590
  H   3.69690253220690      1.10464042469324      0.33688089235735
  H   1.43992822452192     -0.78709012819808     -0.64819230544724
  H   -1.34652260438616      1.18450803142226     -1.86382084940078
  H   -0.72209704756108      2.13069606849509      0.53358863567897
  H   1.94881932561198      1.57271881413941     -0.12121211332226
  H   3.18571362494291     -1.26944030044318     -0.19847078596428
  H   -1.68569444973804     -1.49723344999696     -1.69516275462904
  C   -0.86585740705727     -0.04764988976134      1.25908059478653
  H   -1.57120996448209      0.09297108675876      2.10057754970609
  H   0.13846972512185     -0.14244104074798      1.71456370901275
