53
0 2
  C   -1.76095522162693      0.92735418422764     -1.16523702082598
  C   -0.95038295291636      0.74916367937135      0.09307001361865
  C   -1.65423123211634     -0.27077054565530      1.06360212723292
  C   -1.84284635888138     -1.63155887213889      0.31171732446137
  C   -2.57931205153488     -1.45361152935633     -1.03253033200810
  C   -2.01664418827425     -0.33197969996109     -1.93428024896060
  H   -2.58219591307887     -2.41255292989768     -1.57930229968075
  H   -3.63623913642478     -1.22165245882217     -0.82422282393811
  H   -1.07310435439618     -0.68098306192569     -2.39499129289273
  H   -2.71308889671537     -0.15069992761648     -2.76928949762984
  C   -2.48590413874135      2.19223559842719     -1.49454016416845
  H   -1.82241080678606      3.07572517679418     -1.52038007461908
  H   -2.97849954386451      2.12275658411096     -2.47705335790306
  H   -3.27579885693909      2.43695702244755     -0.75314067892181
  C   -0.57669791516605     -2.53337319045235      0.19444614510411
  C   -0.50414598872296      2.07048869456183      0.73758858553391
  C   0.57599412107366     -2.06030492117624     -0.64795858811264
  H   -0.22987415297326     -2.78567752631363      1.20556409042891
  C   0.69658328874518      2.70038847083765     -0.00630706520022
  C   1.94252579205340      1.84428223932316      0.08345147299143
  H   0.89635710309351      3.69913926507299      0.42153198144393
  C   -0.81131360059541     -0.49438647867022      2.33020186184894
  H   -0.87759411183266      0.36404112775979      3.01492537830346
  H   -1.17238519540157     -1.37590427728053      2.88570327707101
  C   -3.03027996019524      0.26496274470911      1.49940207437757
  H   -2.92352288600058      1.22635399774194      2.02639244433056
  H   -3.70451403910781      0.42946435659210      0.64693504593573
  H   -3.52467926519849     -0.43854919381487      2.18982722230470
  H   -1.33180171896955      2.79629142818163      0.77012553701186
  H   -0.21613187756033      1.90580795119957      1.78528159746267
  H   0.42879642178628      2.85109846121910     -1.06421043209485
  C   2.32436391525855      1.08624200370912     -0.96000977414417
  H   1.72596394893061      1.16801800050246     -1.87719265622782
  C   3.41713027773743      0.05876332770582     -1.02172089843705
  H   4.12733225015007      0.31244594052471     -1.82992426014141
  H   4.00594733591332      0.04433825019116     -0.09244112675707
  C   2.85852352798475     -1.35677827983082     -1.31310943466782
  H   2.38857472790430     -1.35431834012206     -2.31049608845625
  H   3.71134059300791     -2.05939214856929     -1.36643416580989
  C   1.85648297427952     -1.84953377046809     -0.29047948191781
  H   -0.02501892969774      0.22639568607609     -0.19790420487503
  H   0.33983280127984     -1.89304125700548     -1.70384265982026
  C   2.63054936216381      1.85111917176023      1.42443554166680
  H   2.89220633543069      2.88245143137249      1.71890410719485
  H   1.96407267885122      1.46206226272327      2.21356118775644
  H   3.55122618494129      1.25333787666934      1.44019898128115
  C   2.39566692027826     -2.03510228217064      1.10397852872363
  H   3.34407353812802     -2.59947292617252      1.08084002014489
  H   2.61998764560804     -1.06395284066384      1.57662507949706
  H   1.70065311835383     -2.57112627150426      1.76314868752389
  H   -0.93746447851590     -3.48480907105031     -0.23995501100508
  H   -2.52020709257416     -2.22563723557698      0.95229882800150
  H   0.24996700185464     -0.65281689759668      2.09568349796396
