7
0 1
  C   -0.71969254628994     -0.03416186163378      0.17518137572032
  C   0.64150202450462     -0.32541816595583     -0.07791936824982
  O   1.32284924545476      0.74523392200544     -0.21036116750180
  H   -1.19735518920141      0.45787726832101     -0.68637199803492
  H   -1.38294233822385     -0.72502729052519      0.70797590617272
  H   1.15727011625340     -1.30001599210308     -0.13558768706996
  H   0.17836868750243      1.18151211989142      0.22708293896347
