11
0 1
  C   -2.49354793575450     -0.03757714657291      1.20454538846857
  C   -1.13077296528441     -0.07374841633809      1.82630717614062
  N   -0.06589323687473      0.02999021625971      1.14774347579120
  C   1.20289453087305     -0.01387965264470      1.83330263523914
  H   -1.09969528236511     -0.19819211385825      2.93349666843339
  H   -3.09075908838720      0.79023087894816      1.62541424162395
  H   -2.40990161382661      0.08881867955250      0.11600909402514
  H   -3.04552438044959     -0.96829566944228      1.42387474048288
  H   1.81237111016902     -0.84088471844184      1.42973516392734
  H   1.76543294519448      0.91318847404572      1.62729650991233
  H   1.12091891670561     -0.13968453150803      2.93399190595543
