13
0 1
  C   0.14774221262439     -1.20733547206376      0.69602368422134
  H   0.81316112684843     -1.89885180676231      1.22063635702409
  C   -0.41260045903960     -0.12354389558340      1.40248478765627
  H   -1.39240431974006      0.27888412058967      1.12519542162265
  H   -0.15489285810358      0.02202507533757      2.45653971989882
  C   0.14811437566385     -1.20695029509631     -0.69630564809941
  C   -0.41177613062037     -0.12267696852640     -1.40245843126988
  H   -1.39179973961067      0.27951873633976     -1.12558509357877
  H   0.81381576822371     -1.89816802314122     -1.22095013782144
  H   -0.15349127684761      0.02341853487299     -2.45630025691646
  S   0.43080958294241      1.51404248746025      0.00029337457912
  O   -0.33304133401147      2.76933856122858     -0.00021709497897
  O   1.89636305167055      1.57029894534457      0.00064331766263
