18
0 1
  C   -0.17240184862995      0.14262237139653      1.34700437514393
  C   -0.46594682043848     -1.32806937497682      1.72719577196228
  O   -0.03838913049662     -2.25395364863610      1.09157088518866
  F   0.32586331993410      0.21553079540383      0.11670827515262
  F   0.74103781476060      0.65176310151892      2.19872781806713
  F   -1.26725574515803      0.90410741498611      1.41169986109863
  O   -1.19267290424420     -1.37049771872151      2.82646226616907
  C   -1.39044636128067     -2.67547829670761      3.42781240144398
  C   -2.29138699765864     -2.49679699499328      4.62788324277445
  N   1.89098994965746     -2.07672946953132      3.54767560121317
  H   -1.82514232949563     -3.34424638464124      2.66872545329309
  H   -0.39052299363594     -3.04406237539030      3.70256690088645
  H   -2.46085607887855     -3.47208581724637      5.11051988431106
  H   -1.82884245837237     -1.82267178925996      5.36485705096771
  H   -3.26859511040567     -2.08033676518625      4.33812468267991
  H   2.63876841261336     -2.37706843902367      4.17510042293467
  H   2.06514504235747     -2.53428499558806      2.65049335211194
  H   2.04077923937176     -1.07962161340291      3.38114275460118
